/*---------------------------------------------------------------------------*\
| =========                 |                                                 |
| \\      /  F ield         | OpenFOAM: The Open Source CFD Toolbox           |
|  \\    /   O peration     | Version:  2.2.x                                 |
|   \\  /    A nd           | Web:      www.OpenFOAM.org                      |
|    \\/     M anipulation  |                                                 |
\*---------------------------------------------------------------------------*/
Build  : 2.2.x-1ef4d132e582
Exec   : clusterMHDFoam
Date   : Apr 10 2015
Time   : 16:20:09
Host   : "octopus100.ubi.pt"
PID    : 20830
Case   : /home/xisto/OpenFOAM/xisto-2.2.x/run/ShockTUBE-Ryu/1a
nProcs : 1
sigFpe : Enabling floating point exception trapping (FOAM_SIGFPE).
fileModificationChecking : Monitoring run-time modified files using timeStampMaster
allowSystemOperations : Disallowing user-supplied system call operations

// * * * * * * * * * * * * * * * * * * * * * * * * * * * * * * * * * * * * * //
Create time

Create mesh for time = 0

fluxScheme is: HLLD
 HLLC and Roe not working with MHD

Reading thermodynamicProperties

Reading transportProperties

Reading field p

Reading field T

Reading field U

Reading field B components

Courant Number mean: 0 max: 0.1024
4-Stage RK on?  yes


Starting time loop

Courant Number mean: 0 max: 0.1024
deltaT = 1.19904e-05
Time = 1.19904e-05

RKStage:: 1
RKStage:: 2
RKStage:: 3
diagonal:  Solving for rho, Initial residual = 0, Final residual = 0, No Iterations 0
diagonal:  Solving for By, Initial residual = 0, Final residual = 0, No Iterations 0
diagonal:  Solving for Bz, Initial residual = 0, Final residual = 0, No Iterations 0
diagonal:  Solving for rhoUx, Initial residual = 0, Final residual = 0, No Iterations 0
diagonal:  Solving for rhoUy, Initial residual = 0, Final residual = 0, No Iterations 0
diagonal:  Solving for rhoUz, Initial residual = 0, Final residual = 0, No Iterations 0
diagonal:  Solving for rhoE, Initial residual = 0, Final residual = 0, No Iterations 0
ExecutionTime = 0.04 s  ClockTime = 0 s
max(div(Bf)) = 0  average(div(Bf)) = 0


Courant Number mean: 0 max: 0.122782
deltaT = 1.43712e-05
Time = 2.63616e-05

RKStage:: 1
RKStage:: 2
RKStage:: 3
diagonal:  Solving for rho, Initial residual = 0, Final residual = 0, No Iterations 0
diagonal:  Solving for By, Initial residual = 0, Final residual = 0, No Iterations 0
diagonal:  Solving for Bz, Initial residual = 0, Final residual = 0, No Iterations 0
diagonal:  Solving for rhoUx, Initial residual = 0, Final residual = 0, No Iterations 0
diagonal:  Solving for rhoUy, Initial residual = 0, Final residual = 0, No Iterations 0
diagonal:  Solving for rhoUz, Initial residual = 0, Final residual = 0, No Iterations 0
diagonal:  Solving for rhoE, Initial residual = 0, Final residual = 0, No Iterations 0
ExecutionTime = 0.04 s  ClockTime = 0 s
max(div(Bf)) = 0  average(div(Bf)) = 0


Courant Number mean: 0 max: 0.147161
deltaT = 1.72256e-05
Time = 4.35873e-05

RKStage:: 1
RKStage:: 2
RKStage:: 3
diagonal:  Solving for rho, Initial residual = 0, Final residual = 0, No Iterations 0
diagonal:  Solving for By, Initial residual = 0, Final residual = 0, No Iterations 0
diagonal:  Solving for Bz, Initial residual = 0, Final residual = 0, No Iterations 0
diagonal:  Solving for rhoUx, Initial residual = 0, Final residual = 0, No Iterations 0
diagonal:  Solving for rhoUy, Initial residual = 0, Final residual = 0, No Iterations 0
diagonal:  Solving for rhoUz, Initial residual = 0, Final residual = 0, No Iterations 0
diagonal:  Solving for rhoE, Initial residual = 0, Final residual = 0, No Iterations 0
ExecutionTime = 0.05 s  ClockTime = 0 s
max(div(Bf)) = 0  average(div(Bf)) = 0


Courant Number mean: 0 max: 0.17639
deltaT = 2.06565e-05
Time = 6.42437e-05

RKStage:: 1
RKStage:: 2
RKStage:: 3
diagonal:  Solving for rho, Initial residual = 0, Final residual = 0, No Iterations 0
diagonal:  Solving for By, Initial residual = 0, Final residual = 0, No Iterations 0
diagonal:  Solving for Bz, Initial residual = 0, Final residual = 0, No Iterations 0
diagonal:  Solving for rhoUx, Initial residual = 0, Final residual = 0, No Iterations 0
diagonal:  Solving for rhoUy, Initial residual = 0, Final residual = 0, No Iterations 0
diagonal:  Solving for rhoUz, Initial residual = 0, Final residual = 0, No Iterations 0
diagonal:  Solving for rhoE, Initial residual = 0, Final residual = 0, No Iterations 0
ExecutionTime = 0.06 s  ClockTime = 0 s
max(div(Bf)) = 0  average(div(Bf)) = 0


Courant Number mean: 0 max: 0.211522
deltaT = 2.47774e-05
Time = 8.90212e-05

RKStage:: 1
RKStage:: 2
RKStage:: 3
diagonal:  Solving for rho, Initial residual = 0, Final residual = 0, No Iterations 0
diagonal:  Solving for By, Initial residual = 0, Final residual = 0, No Iterations 0
diagonal:  Solving for Bz, Initial residual = 0, Final residual = 0, No Iterations 0
diagonal:  Solving for rhoUx, Initial residual = 0, Final residual = 0, No Iterations 0
diagonal:  Solving for rhoUy, Initial residual = 0, Final residual = 0, No Iterations 0
diagonal:  Solving for rhoUz, Initial residual = 0, Final residual = 0, No Iterations 0
diagonal:  Solving for rhoE, Initial residual = 0, Final residual = 0, No Iterations 0
ExecutionTime = 0.06 s  ClockTime = 0 s
max(div(Bf)) = 0  average(div(Bf)) = 0


Courant Number mean: 0 max: 0.253721
deltaT = 2.9585e-05
Time = 0.000118606

RKStage:: 1
RKStage:: 2
RKStage:: 3
diagonal:  Solving for rho, Initial residual = 0, Final residual = 0, No Iterations 0
diagonal:  Solving for By, Initial residual = 0, Final residual = 0, No Iterations 0
diagonal:  Solving for Bz, Initial residual = 0, Final residual = 0, No Iterations 0
diagonal:  Solving for rhoUx, Initial residual = 0, Final residual = 0, No Iterations 0
diagonal:  Solving for rhoUy, Initial residual = 0, Final residual = 0, No Iterations 0
diagonal:  Solving for rhoUz, Initial residual = 0, Final residual = 0, No Iterations 0
diagonal:  Solving for rhoE, Initial residual = 0, Final residual = 0, No Iterations 0
ExecutionTime = 0.07 s  ClockTime = 0 s
max(div(Bf)) = 0  average(div(Bf)) = 0


Courant Number mean: 0 max: 0.302951
deltaT = 3.44299e-05
Time = 0.000153036

RKStage:: 1
RKStage:: 2
RKStage:: 3
diagonal:  Solving for rho, Initial residual = 0, Final residual = 0, No Iterations 0
diagonal:  Solving for By, Initial residual = 0, Final residual = 0, No Iterations 0
diagonal:  Solving for Bz, Initial residual = 0, Final residual = 0, No Iterations 0
diagonal:  Solving for rhoUx, Initial residual = 0, Final residual = 0, No Iterations 0
diagonal:  Solving for rhoUy, Initial residual = 0, Final residual = 0, No Iterations 0
diagonal:  Solving for rhoUz, Initial residual = 0, Final residual = 0, No Iterations 0
diagonal:  Solving for rhoE, Initial residual = 0, Final residual = 0, No Iterations 0
ExecutionTime = 0.08 s  ClockTime = 0 s
max(div(Bf)) = 0  average(div(Bf)) = 0


Courant Number mean: 0 max: 0.352563
deltaT = 3.92309e-05
Time = 0.000192267

RKStage:: 1
RKStage:: 2
RKStage:: 3
diagonal:  Solving for rho, Initial residual = 0, Final residual = 0, No Iterations 0
diagonal:  Solving for By, Initial residual = 0, Final residual = 0, No Iterations 0
diagonal:  Solving for Bz, Initial residual = 0, Final residual = 0, No Iterations 0
diagonal:  Solving for rhoUx, Initial residual = 0, Final residual = 0, No Iterations 0
diagonal:  Solving for rhoUy, Initial residual = 0, Final residual = 0, No Iterations 0
diagonal:  Solving for rhoUz, Initial residual = 0, Final residual = 0, No Iterations 0
diagonal:  Solving for rhoE, Initial residual = 0, Final residual = 0, No Iterations 0
ExecutionTime = 0.09 s  ClockTime = 0 s
max(div(Bf)) = 0  average(div(Bf)) = 0


Courant Number mean: 0 max: 0.401725
deltaT = 4.39809e-05
Time = 0.000236248

RKStage:: 1
RKStage:: 2
RKStage:: 3
diagonal:  Solving for rho, Initial residual = 0, Final residual = 0, No Iterations 0
diagonal:  Solving for By, Initial residual = 0, Final residual = 0, No Iterations 0
diagonal:  Solving for Bz, Initial residual = 0, Final residual = 0, No Iterations 0
diagonal:  Solving for rhoUx, Initial residual = 0, Final residual = 0, No Iterations 0
diagonal:  Solving for rhoUy, Initial residual = 0, Final residual = 0, No Iterations 0
diagonal:  Solving for rhoUz, Initial residual = 0, Final residual = 0, No Iterations 0
diagonal:  Solving for rhoE, Initial residual = 0, Final residual = 0, No Iterations 0
ExecutionTime = 0.09 s  ClockTime = 0 s
max(div(Bf)) = 0  average(div(Bf)) = 0


Courant Number mean: 0 max: 0.450364
deltaT = 4.88188e-05
Time = 0.000285067

RKStage:: 1
RKStage:: 2
RKStage:: 3
diagonal:  Solving for rho, Initial residual = 0, Final residual = 0, No Iterations 0
diagonal:  Solving for By, Initial residual = 0, Final residual = 0, No Iterations 0
diagonal:  Solving for Bz, Initial residual = 0, Final residual = 0, No Iterations 0
diagonal:  Solving for rhoUx, Initial residual = 0, Final residual = 0, No Iterations 0
diagonal:  Solving for rhoUy, Initial residual = 0, Final residual = 0, No Iterations 0
diagonal:  Solving for rhoUz, Initial residual = 0, Final residual = 0, No Iterations 0
diagonal:  Solving for rhoE, Initial residual = 0, Final residual = 0, No Iterations 0
ExecutionTime = 0.1 s  ClockTime = 0 s
max(div(Bf)) = 0  average(div(Bf)) = 0


Courant Number mean: 0 max: 0.499904
deltaT = 4.88188e-05
Time = 0.000333885

RKStage:: 1
RKStage:: 2
RKStage:: 3
diagonal:  Solving for rho, Initial residual = 0, Final residual = 0, No Iterations 0
diagonal:  Solving for By, Initial residual = 0, Final residual = 0, No Iterations 0
diagonal:  Solving for Bz, Initial residual = 0, Final residual = 0, No Iterations 0
diagonal:  Solving for rhoUx, Initial residual = 0, Final residual = 0, No Iterations 0
diagonal:  Solving for rhoUy, Initial residual = 0, Final residual = 0, No Iterations 0
diagonal:  Solving for rhoUz, Initial residual = 0, Final residual = 0, No Iterations 0
diagonal:  Solving for rhoE, Initial residual = 0, Final residual = 0, No Iterations 0
ExecutionTime = 0.11 s  ClockTime = 0 s
max(div(Bf)) = 0  average(div(Bf)) = 0


Courant Number mean: 0 max: 0.499904
deltaT = 4.88188e-05
Time = 0.000382704

RKStage:: 1
RKStage:: 2
RKStage:: 3
diagonal:  Solving for rho, Initial residual = 0, Final residual = 0, No Iterations 0
diagonal:  Solving for By, Initial residual = 0, Final residual = 0, No Iterations 0
diagonal:  Solving for Bz, Initial residual = 0, Final residual = 0, No Iterations 0
diagonal:  Solving for rhoUx, Initial residual = 0, Final residual = 0, No Iterations 0
diagonal:  Solving for rhoUy, Initial residual = 0, Final residual = 0, No Iterations 0
diagonal:  Solving for rhoUz, Initial residual = 0, Final residual = 0, No Iterations 0
diagonal:  Solving for rhoE, Initial residual = 0, Final residual = 0, No Iterations 0
ExecutionTime = 0.12 s  ClockTime = 0 s
max(div(Bf)) = 0  average(div(Bf)) = 0


Courant Number mean: 0 max: 0.499904
deltaT = 4.88188e-05
Time = 0.000431523

RKStage:: 1
RKStage:: 2
RKStage:: 3
diagonal:  Solving for rho, Initial residual = 0, Final residual = 0, No Iterations 0
diagonal:  Solving for By, Initial residual = 0, Final residual = 0, No Iterations 0
diagonal:  Solving for Bz, Initial residual = 0, Final residual = 0, No Iterations 0
diagonal:  Solving for rhoUx, Initial residual = 0, Final residual = 0, No Iterations 0
diagonal:  Solving for rhoUy, Initial residual = 0, Final residual = 0, No Iterations 0
diagonal:  Solving for rhoUz, Initial residual = 0, Final residual = 0, No Iterations 0
diagonal:  Solving for rhoE, Initial residual = 0, Final residual = 0, No Iterations 0
ExecutionTime = 0.13 s  ClockTime = 0 s
max(div(Bf)) = 0  average(div(Bf)) = 0


Courant Number mean: 0 max: 0.499904
deltaT = 4.88188e-05
Time = 0.000480342

RKStage:: 1
RKStage:: 2
RKStage:: 3
diagonal:  Solving for rho, Initial residual = 0, Final residual = 0, No Iterations 0
diagonal:  Solving for By, Initial residual = 0, Final residual = 0, No Iterations 0
diagonal:  Solving for Bz, Initial residual = 0, Final residual = 0, No Iterations 0
diagonal:  Solving for rhoUx, Initial residual = 0, Final residual = 0, No Iterations 0
diagonal:  Solving for rhoUy, Initial residual = 0, Final residual = 0, No Iterations 0
diagonal:  Solving for rhoUz, Initial residual = 0, Final residual = 0, No Iterations 0
diagonal:  Solving for rhoE, Initial residual = 0, Final residual = 0, No Iterations 0
ExecutionTime = 0.14 s  ClockTime = 0 s
max(div(Bf)) = 0  average(div(Bf)) = 0


Courant Number mean: 0 max: 0.499904
deltaT = 4.88188e-05
Time = 0.00052916

RKStage:: 1
RKStage:: 2
RKStage:: 3
diagonal:  Solving for rho, Initial residual = 0, Final residual = 0, No Iterations 0
diagonal:  Solving for By, Initial residual = 0, Final residual = 0, No Iterations 0
diagonal:  Solving for Bz, Initial residual = 0, Final residual = 0, No Iterations 0
diagonal:  Solving for rhoUx, Initial residual = 0, Final residual = 0, No Iterations 0
diagonal:  Solving for rhoUy, Initial residual = 0, Final residual = 0, No Iterations 0
diagonal:  Solving for rhoUz, Initial residual = 0, Final residual = 0, No Iterations 0
diagonal:  Solving for rhoE, Initial residual = 0, Final residual = 0, No Iterations 0
ExecutionTime = 0.15 s  ClockTime = 0 s
max(div(Bf)) = 0  average(div(Bf)) = 0


Courant Number mean: 0 max: 0.499904
deltaT = 4.88188e-05
Time = 0.000577979

RKStage:: 1
RKStage:: 2
RKStage:: 3
diagonal:  Solving for rho, Initial residual = 0, Final residual = 0, No Iterations 0
diagonal:  Solving for By, Initial residual = 0, Final residual = 0, No Iterations 0
diagonal:  Solving for Bz, Initial residual = 0, Final residual = 0, No Iterations 0
diagonal:  Solving for rhoUx, Initial residual = 0, Final residual = 0, No Iterations 0
diagonal:  Solving for rhoUy, Initial residual = 0, Final residual = 0, No Iterations 0
diagonal:  Solving for rhoUz, Initial residual = 0, Final residual = 0, No Iterations 0
diagonal:  Solving for rhoE, Initial residual = 0, Final residual = 0, No Iterations 0
ExecutionTime = 0.16 s  ClockTime = 0 s
max(div(Bf)) = 0  average(div(Bf)) = 0


Courant Number mean: 0 max: 0.499904
deltaT = 4.88188e-05
Time = 0.000626798

RKStage:: 1
RKStage:: 2
RKStage:: 3
diagonal:  Solving for rho, Initial residual = 0, Final residual = 0, No Iterations 0
diagonal:  Solving for By, Initial residual = 0, Final residual = 0, No Iterations 0
diagonal:  Solving for Bz, Initial residual = 0, Final residual = 0, No Iterations 0
diagonal:  Solving for rhoUx, Initial residual = 0, Final residual = 0, No Iterations 0
diagonal:  Solving for rhoUy, Initial residual = 0, Final residual = 0, No Iterations 0
diagonal:  Solving for rhoUz, Initial residual = 0, Final residual = 0, No Iterations 0
diagonal:  Solving for rhoE, Initial residual = 0, Final residual = 0, No Iterations 0
ExecutionTime = 0.16 s  ClockTime = 0 s
max(div(Bf)) = 0  average(div(Bf)) = 0


Courant Number mean: 0 max: 0.499904
deltaT = 4.88188e-05
Time = 0.000675617

RKStage:: 1
RKStage:: 2
RKStage:: 3
diagonal:  Solving for rho, Initial residual = 0, Final residual = 0, No Iterations 0
diagonal:  Solving for By, Initial residual = 0, Final residual = 0, No Iterations 0
diagonal:  Solving for Bz, Initial residual = 0, Final residual = 0, No Iterations 0
diagonal:  Solving for rhoUx, Initial residual = 0, Final residual = 0, No Iterations 0
diagonal:  Solving for rhoUy, Initial residual = 0, Final residual = 0, No Iterations 0
diagonal:  Solving for rhoUz, Initial residual = 0, Final residual = 0, No Iterations 0
diagonal:  Solving for rhoE, Initial residual = 0, Final residual = 0, No Iterations 0
ExecutionTime = 0.17 s  ClockTime = 0 s
max(div(Bf)) = 0  average(div(Bf)) = 0


Courant Number mean: 0 max: 0.499904
deltaT = 4.88188e-05
Time = 0.000724436

RKStage:: 1
RKStage:: 2
RKStage:: 3
diagonal:  Solving for rho, Initial residual = 0, Final residual = 0, No Iterations 0
diagonal:  Solving for By, Initial residual = 0, Final residual = 0, No Iterations 0
diagonal:  Solving for Bz, Initial residual = 0, Final residual = 0, No Iterations 0
diagonal:  Solving for rhoUx, Initial residual = 0, Final residual = 0, No Iterations 0
diagonal:  Solving for rhoUy, Initial residual = 0, Final residual = 0, No Iterations 0
diagonal:  Solving for rhoUz, Initial residual = 0, Final residual = 0, No Iterations 0
diagonal:  Solving for rhoE, Initial residual = 0, Final residual = 0, No Iterations 0
ExecutionTime = 0.18 s  ClockTime = 0 s
max(div(Bf)) = 0  average(div(Bf)) = 0


Courant Number mean: 0 max: 0.499904
deltaT = 4.88188e-05
Time = 0.000773254

RKStage:: 1
RKStage:: 2
RKStage:: 3
diagonal:  Solving for rho, Initial residual = 0, Final residual = 0, No Iterations 0
diagonal:  Solving for By, Initial residual = 0, Final residual = 0, No Iterations 0
diagonal:  Solving for Bz, Initial residual = 0, Final residual = 0, No Iterations 0
diagonal:  Solving for rhoUx, Initial residual = 0, Final residual = 0, No Iterations 0
diagonal:  Solving for rhoUy, Initial residual = 0, Final residual = 0, No Iterations 0
diagonal:  Solving for rhoUz, Initial residual = 0, Final residual = 0, No Iterations 0
diagonal:  Solving for rhoE, Initial residual = 0, Final residual = 0, No Iterations 0
ExecutionTime = 0.19 s  ClockTime = 0 s
max(div(Bf)) = 0  average(div(Bf)) = 0


Courant Number mean: 0 max: 0.499904
deltaT = 4.88188e-05
Time = 0.000822073

RKStage:: 1
RKStage:: 2
RKStage:: 3
diagonal:  Solving for rho, Initial residual = 0, Final residual = 0, No Iterations 0
diagonal:  Solving for By, Initial residual = 0, Final residual = 0, No Iterations 0
diagonal:  Solving for Bz, Initial residual = 0, Final residual = 0, No Iterations 0
diagonal:  Solving for rhoUx, Initial residual = 0, Final residual = 0, No Iterations 0
diagonal:  Solving for rhoUy, Initial residual = 0, Final residual = 0, No Iterations 0
diagonal:  Solving for rhoUz, Initial residual = 0, Final residual = 0, No Iterations 0
diagonal:  Solving for rhoE, Initial residual = 0, Final residual = 0, No Iterations 0
ExecutionTime = 0.2 s  ClockTime = 0 s
max(div(Bf)) = 0  average(div(Bf)) = 0


Courant Number mean: 0 max: 0.499904
deltaT = 4.88188e-05
Time = 0.000870892

RKStage:: 1
RKStage:: 2
RKStage:: 3
diagonal:  Solving for rho, Initial residual = 0, Final residual = 0, No Iterations 0
diagonal:  Solving for By, Initial residual = 0, Final residual = 0, No Iterations 0
diagonal:  Solving for Bz, Initial residual = 0, Final residual = 0, No Iterations 0
diagonal:  Solving for rhoUx, Initial residual = 0, Final residual = 0, No Iterations 0
diagonal:  Solving for rhoUy, Initial residual = 0, Final residual = 0, No Iterations 0
diagonal:  Solving for rhoUz, Initial residual = 0, Final residual = 0, No Iterations 0
diagonal:  Solving for rhoE, Initial residual = 0, Final residual = 0, No Iterations 0
ExecutionTime = 0.21 s  ClockTime = 0 s
max(div(Bf)) = 0  average(div(Bf)) = 0


Courant Number mean: 0 max: 0.499904
deltaT = 4.88188e-05
Time = 0.000919711

RKStage:: 1
RKStage:: 2
RKStage:: 3
diagonal:  Solving for rho, Initial residual = 0, Final residual = 0, No Iterations 0
diagonal:  Solving for By, Initial residual = 0, Final residual = 0, No Iterations 0
diagonal:  Solving for Bz, Initial residual = 0, Final residual = 0, No Iterations 0
diagonal:  Solving for rhoUx, Initial residual = 0, Final residual = 0, No Iterations 0
diagonal:  Solving for rhoUy, Initial residual = 0, Final residual = 0, No Iterations 0
diagonal:  Solving for rhoUz, Initial residual = 0, Final residual = 0, No Iterations 0
diagonal:  Solving for rhoE, Initial residual = 0, Final residual = 0, No Iterations 0
ExecutionTime = 0.22 s  ClockTime = 0 s
max(div(Bf)) = 0  average(div(Bf)) = 0


Courant Number mean: 0 max: 0.499904
deltaT = 4.88188e-05
Time = 0.000968529

RKStage:: 1
RKStage:: 2
RKStage:: 3
diagonal:  Solving for rho, Initial residual = 0, Final residual = 0, No Iterations 0
diagonal:  Solving for By, Initial residual = 0, Final residual = 0, No Iterations 0
diagonal:  Solving for Bz, Initial residual = 0, Final residual = 0, No Iterations 0
diagonal:  Solving for rhoUx, Initial residual = 0, Final residual = 0, No Iterations 0
diagonal:  Solving for rhoUy, Initial residual = 0, Final residual = 0, No Iterations 0
diagonal:  Solving for rhoUz, Initial residual = 0, Final residual = 0, No Iterations 0
diagonal:  Solving for rhoE, Initial residual = 0, Final residual = 0, No Iterations 0
ExecutionTime = 0.23 s  ClockTime = 0 s
max(div(Bf)) = 0  average(div(Bf)) = 0


Courant Number mean: 0 max: 0.499904
deltaT = 4.88188e-05
Time = 0.00101735

RKStage:: 1
RKStage:: 2
RKStage:: 3
diagonal:  Solving for rho, Initial residual = 0, Final residual = 0, No Iterations 0
diagonal:  Solving for By, Initial residual = 0, Final residual = 0, No Iterations 0
diagonal:  Solving for Bz, Initial residual = 0, Final residual = 0, No Iterations 0
diagonal:  Solving for rhoUx, Initial residual = 0, Final residual = 0, No Iterations 0
diagonal:  Solving for rhoUy, Initial residual = 0, Final residual = 0, No Iterations 0
diagonal:  Solving for rhoUz, Initial residual = 0, Final residual = 0, No Iterations 0
diagonal:  Solving for rhoE, Initial residual = 0, Final residual = 0, No Iterations 0
ExecutionTime = 0.23 s  ClockTime = 0 s
max(div(Bf)) = 0  average(div(Bf)) = 0


Courant Number mean: 0 max: 0.499904
deltaT = 4.88188e-05
Time = 0.00106617

RKStage:: 1
RKStage:: 2
RKStage:: 3
diagonal:  Solving for rho, Initial residual = 0, Final residual = 0, No Iterations 0
diagonal:  Solving for By, Initial residual = 0, Final residual = 0, No Iterations 0
diagonal:  Solving for Bz, Initial residual = 0, Final residual = 0, No Iterations 0
diagonal:  Solving for rhoUx, Initial residual = 0, Final residual = 0, No Iterations 0
diagonal:  Solving for rhoUy, Initial residual = 0, Final residual = 0, No Iterations 0
diagonal:  Solving for rhoUz, Initial residual = 0, Final residual = 0, No Iterations 0
diagonal:  Solving for rhoE, Initial residual = 0, Final residual = 0, No Iterations 0
ExecutionTime = 0.24 s  ClockTime = 0 s
max(div(Bf)) = 0  average(div(Bf)) = 0


Courant Number mean: 0 max: 0.499904
deltaT = 4.88188e-05
Time = 0.00111499

RKStage:: 1
RKStage:: 2
RKStage:: 3
diagonal:  Solving for rho, Initial residual = 0, Final residual = 0, No Iterations 0
diagonal:  Solving for By, Initial residual = 0, Final residual = 0, No Iterations 0
diagonal:  Solving for Bz, Initial residual = 0, Final residual = 0, No Iterations 0
diagonal:  Solving for rhoUx, Initial residual = 0, Final residual = 0, No Iterations 0
diagonal:  Solving for rhoUy, Initial residual = 0, Final residual = 0, No Iterations 0
diagonal:  Solving for rhoUz, Initial residual = 0, Final residual = 0, No Iterations 0
diagonal:  Solving for rhoE, Initial residual = 0, Final residual = 0, No Iterations 0
ExecutionTime = 0.25 s  ClockTime = 0 s
max(div(Bf)) = 0  average(div(Bf)) = 0


Courant Number mean: 0 max: 0.499904
deltaT = 4.88188e-05
Time = 0.0011638

RKStage:: 1
RKStage:: 2
RKStage:: 3
diagonal:  Solving for rho, Initial residual = 0, Final residual = 0, No Iterations 0
diagonal:  Solving for By, Initial residual = 0, Final residual = 0, No Iterations 0
diagonal:  Solving for Bz, Initial residual = 0, Final residual = 0, No Iterations 0
diagonal:  Solving for rhoUx, Initial residual = 0, Final residual = 0, No Iterations 0
diagonal:  Solving for rhoUy, Initial residual = 0, Final residual = 0, No Iterations 0
diagonal:  Solving for rhoUz, Initial residual = 0, Final residual = 0, No Iterations 0
diagonal:  Solving for rhoE, Initial residual = 0, Final residual = 0, No Iterations 0
ExecutionTime = 0.26 s  ClockTime = 0 s
max(div(Bf)) = 0  average(div(Bf)) = 0


Courant Number mean: 0 max: 0.499904
deltaT = 4.88188e-05
Time = 0.00121262

RKStage:: 1
RKStage:: 2
RKStage:: 3
diagonal:  Solving for rho, Initial residual = 0, Final residual = 0, No Iterations 0
diagonal:  Solving for By, Initial residual = 0, Final residual = 0, No Iterations 0
diagonal:  Solving for Bz, Initial residual = 0, Final residual = 0, No Iterations 0
diagonal:  Solving for rhoUx, Initial residual = 0, Final residual = 0, No Iterations 0
diagonal:  Solving for rhoUy, Initial residual = 0, Final residual = 0, No Iterations 0
diagonal:  Solving for rhoUz, Initial residual = 0, Final residual = 0, No Iterations 0
diagonal:  Solving for rhoE, Initial residual = 0, Final residual = 0, No Iterations 0
ExecutionTime = 0.27 s  ClockTime = 0 s
max(div(Bf)) = 0  average(div(Bf)) = 0


Courant Number mean: 0 max: 0.499904
deltaT = 4.88188e-05
Time = 0.00126144

RKStage:: 1
RKStage:: 2
RKStage:: 3
diagonal:  Solving for rho, Initial residual = 0, Final residual = 0, No Iterations 0
diagonal:  Solving for By, Initial residual = 0, Final residual = 0, No Iterations 0
diagonal:  Solving for Bz, Initial residual = 0, Final residual = 0, No Iterations 0
diagonal:  Solving for rhoUx, Initial residual = 0, Final residual = 0, No Iterations 0
diagonal:  Solving for rhoUy, Initial residual = 0, Final residual = 0, No Iterations 0
diagonal:  Solving for rhoUz, Initial residual = 0, Final residual = 0, No Iterations 0
diagonal:  Solving for rhoE, Initial residual = 0, Final residual = 0, No Iterations 0
ExecutionTime = 0.28 s  ClockTime = 0 s
max(div(Bf)) = 0  average(div(Bf)) = 0


Courant Number mean: 0 max: 0.499904
deltaT = 4.88188e-05
Time = 0.00131026

RKStage:: 1
RKStage:: 2
RKStage:: 3
diagonal:  Solving for rho, Initial residual = 0, Final residual = 0, No Iterations 0
diagonal:  Solving for By, Initial residual = 0, Final residual = 0, No Iterations 0
diagonal:  Solving for Bz, Initial residual = 0, Final residual = 0, No Iterations 0
diagonal:  Solving for rhoUx, Initial residual = 0, Final residual = 0, No Iterations 0
diagonal:  Solving for rhoUy, Initial residual = 0, Final residual = 0, No Iterations 0
diagonal:  Solving for rhoUz, Initial residual = 0, Final residual = 0, No Iterations 0
diagonal:  Solving for rhoE, Initial residual = 0, Final residual = 0, No Iterations 0
ExecutionTime = 0.29 s  ClockTime = 0 s
max(div(Bf)) = 0  average(div(Bf)) = 0


Courant Number mean: 0 max: 0.499904
deltaT = 4.88188e-05
Time = 0.00135908

RKStage:: 1
RKStage:: 2
RKStage:: 3
diagonal:  Solving for rho, Initial residual = 0, Final residual = 0, No Iterations 0
diagonal:  Solving for By, Initial residual = 0, Final residual = 0, No Iterations 0
diagonal:  Solving for Bz, Initial residual = 0, Final residual = 0, No Iterations 0
diagonal:  Solving for rhoUx, Initial residual = 0, Final residual = 0, No Iterations 0
diagonal:  Solving for rhoUy, Initial residual = 0, Final residual = 0, No Iterations 0
diagonal:  Solving for rhoUz, Initial residual = 0, Final residual = 0, No Iterations 0
diagonal:  Solving for rhoE, Initial residual = 0, Final residual = 0, No Iterations 0
ExecutionTime = 0.3 s  ClockTime = 0 s
max(div(Bf)) = 0  average(div(Bf)) = 0


Courant Number mean: 0 max: 0.499904
deltaT = 4.88188e-05
Time = 0.0014079

RKStage:: 1
RKStage:: 2
RKStage:: 3
diagonal:  Solving for rho, Initial residual = 0, Final residual = 0, No Iterations 0
diagonal:  Solving for By, Initial residual = 0, Final residual = 0, No Iterations 0
diagonal:  Solving for Bz, Initial residual = 0, Final residual = 0, No Iterations 0
diagonal:  Solving for rhoUx, Initial residual = 0, Final residual = 0, No Iterations 0
diagonal:  Solving for rhoUy, Initial residual = 0, Final residual = 0, No Iterations 0
diagonal:  Solving for rhoUz, Initial residual = 0, Final residual = 0, No Iterations 0
diagonal:  Solving for rhoE, Initial residual = 0, Final residual = 0, No Iterations 0
ExecutionTime = 0.3 s  ClockTime = 0 s
max(div(Bf)) = 0  average(div(Bf)) = 0


Courant Number mean: 0 max: 0.499904
deltaT = 4.88188e-05
Time = 0.00145672

RKStage:: 1
RKStage:: 2
RKStage:: 3
diagonal:  Solving for rho, Initial residual = 0, Final residual = 0, No Iterations 0
diagonal:  Solving for By, Initial residual = 0, Final residual = 0, No Iterations 0
diagonal:  Solving for Bz, Initial residual = 0, Final residual = 0, No Iterations 0
diagonal:  Solving for rhoUx, Initial residual = 0, Final residual = 0, No Iterations 0
diagonal:  Solving for rhoUy, Initial residual = 0, Final residual = 0, No Iterations 0
diagonal:  Solving for rhoUz, Initial residual = 0, Final residual = 0, No Iterations 0
diagonal:  Solving for rhoE, Initial residual = 0, Final residual = 0, No Iterations 0
ExecutionTime = 0.31 s  ClockTime = 0 s
max(div(Bf)) = 0  average(div(Bf)) = 0


Courant Number mean: 0 max: 0.499904
deltaT = 4.88188e-05
Time = 0.00150554

RKStage:: 1
RKStage:: 2
RKStage:: 3
diagonal:  Solving for rho, Initial residual = 0, Final residual = 0, No Iterations 0
diagonal:  Solving for By, Initial residual = 0, Final residual = 0, No Iterations 0
diagonal:  Solving for Bz, Initial residual = 0, Final residual = 0, No Iterations 0
diagonal:  Solving for rhoUx, Initial residual = 0, Final residual = 0, No Iterations 0
diagonal:  Solving for rhoUy, Initial residual = 0, Final residual = 0, No Iterations 0
diagonal:  Solving for rhoUz, Initial residual = 0, Final residual = 0, No Iterations 0
diagonal:  Solving for rhoE, Initial residual = 0, Final residual = 0, No Iterations 0
ExecutionTime = 0.32 s  ClockTime = 0 s
max(div(Bf)) = 0  average(div(Bf)) = 0


Courant Number mean: 0 max: 0.499904
deltaT = 4.88188e-05
Time = 0.00155435

RKStage:: 1
RKStage:: 2
RKStage:: 3
diagonal:  Solving for rho, Initial residual = 0, Final residual = 0, No Iterations 0
diagonal:  Solving for By, Initial residual = 0, Final residual = 0, No Iterations 0
diagonal:  Solving for Bz, Initial residual = 0, Final residual = 0, No Iterations 0
diagonal:  Solving for rhoUx, Initial residual = 0, Final residual = 0, No Iterations 0
diagonal:  Solving for rhoUy, Initial residual = 0, Final residual = 0, No Iterations 0
diagonal:  Solving for rhoUz, Initial residual = 0, Final residual = 0, No Iterations 0
diagonal:  Solving for rhoE, Initial residual = 0, Final residual = 0, No Iterations 0
ExecutionTime = 0.33 s  ClockTime = 0 s
max(div(Bf)) = 0  average(div(Bf)) = 0


Courant Number mean: 0 max: 0.499904
deltaT = 4.88188e-05
Time = 0.00160317

RKStage:: 1
RKStage:: 2
RKStage:: 3
diagonal:  Solving for rho, Initial residual = 0, Final residual = 0, No Iterations 0
diagonal:  Solving for By, Initial residual = 0, Final residual = 0, No Iterations 0
diagonal:  Solving for Bz, Initial residual = 0, Final residual = 0, No Iterations 0
diagonal:  Solving for rhoUx, Initial residual = 0, Final residual = 0, No Iterations 0
diagonal:  Solving for rhoUy, Initial residual = 0, Final residual = 0, No Iterations 0
diagonal:  Solving for rhoUz, Initial residual = 0, Final residual = 0, No Iterations 0
diagonal:  Solving for rhoE, Initial residual = 0, Final residual = 0, No Iterations 0
ExecutionTime = 0.34 s  ClockTime = 0 s
max(div(Bf)) = 0  average(div(Bf)) = 0


Courant Number mean: 0 max: 0.499904
deltaT = 4.88188e-05
Time = 0.00165199

RKStage:: 1
RKStage:: 2
RKStage:: 3
diagonal:  Solving for rho, Initial residual = 0, Final residual = 0, No Iterations 0
diagonal:  Solving for By, Initial residual = 0, Final residual = 0, No Iterations 0
diagonal:  Solving for Bz, Initial residual = 0, Final residual = 0, No Iterations 0
diagonal:  Solving for rhoUx, Initial residual = 0, Final residual = 0, No Iterations 0
diagonal:  Solving for rhoUy, Initial residual = 0, Final residual = 0, No Iterations 0
diagonal:  Solving for rhoUz, Initial residual = 0, Final residual = 0, No Iterations 0
diagonal:  Solving for rhoE, Initial residual = 0, Final residual = 0, No Iterations 0
ExecutionTime = 0.35 s  ClockTime = 0 s
max(div(Bf)) = 0  average(div(Bf)) = 0


Courant Number mean: 0 max: 0.499904
deltaT = 4.88188e-05
Time = 0.00170081

RKStage:: 1
RKStage:: 2
RKStage:: 3
diagonal:  Solving for rho, Initial residual = 0, Final residual = 0, No Iterations 0
diagonal:  Solving for By, Initial residual = 0, Final residual = 0, No Iterations 0
diagonal:  Solving for Bz, Initial residual = 0, Final residual = 0, No Iterations 0
diagonal:  Solving for rhoUx, Initial residual = 0, Final residual = 0, No Iterations 0
diagonal:  Solving for rhoUy, Initial residual = 0, Final residual = 0, No Iterations 0
diagonal:  Solving for rhoUz, Initial residual = 0, Final residual = 0, No Iterations 0
diagonal:  Solving for rhoE, Initial residual = 0, Final residual = 0, No Iterations 0
ExecutionTime = 0.36 s  ClockTime = 0 s
max(div(Bf)) = 0  average(div(Bf)) = 0


Courant Number mean: 0 max: 0.499904
deltaT = 4.88188e-05
Time = 0.00174963

RKStage:: 1
RKStage:: 2
RKStage:: 3
diagonal:  Solving for rho, Initial residual = 0, Final residual = 0, No Iterations 0
diagonal:  Solving for By, Initial residual = 0, Final residual = 0, No Iterations 0
diagonal:  Solving for Bz, Initial residual = 0, Final residual = 0, No Iterations 0
diagonal:  Solving for rhoUx, Initial residual = 0, Final residual = 0, No Iterations 0
diagonal:  Solving for rhoUy, Initial residual = 0, Final residual = 0, No Iterations 0
diagonal:  Solving for rhoUz, Initial residual = 0, Final residual = 0, No Iterations 0
diagonal:  Solving for rhoE, Initial residual = 0, Final residual = 0, No Iterations 0
ExecutionTime = 0.37 s  ClockTime = 0 s
max(div(Bf)) = 0  average(div(Bf)) = 0


Courant Number mean: 0 max: 0.499904
deltaT = 4.88188e-05
Time = 0.00179845

RKStage:: 1
RKStage:: 2
RKStage:: 3
diagonal:  Solving for rho, Initial residual = 0, Final residual = 0, No Iterations 0
diagonal:  Solving for By, Initial residual = 0, Final residual = 0, No Iterations 0
diagonal:  Solving for Bz, Initial residual = 0, Final residual = 0, No Iterations 0
diagonal:  Solving for rhoUx, Initial residual = 0, Final residual = 0, No Iterations 0
diagonal:  Solving for rhoUy, Initial residual = 0, Final residual = 0, No Iterations 0
diagonal:  Solving for rhoUz, Initial residual = 0, Final residual = 0, No Iterations 0
diagonal:  Solving for rhoE, Initial residual = 0, Final residual = 0, No Iterations 0
ExecutionTime = 0.37 s  ClockTime = 0 s
max(div(Bf)) = 0  average(div(Bf)) = 0


Courant Number mean: 0 max: 0.499904
deltaT = 4.88188e-05
Time = 0.00184727

RKStage:: 1
RKStage:: 2
RKStage:: 3
diagonal:  Solving for rho, Initial residual = 0, Final residual = 0, No Iterations 0
diagonal:  Solving for By, Initial residual = 0, Final residual = 0, No Iterations 0
diagonal:  Solving for Bz, Initial residual = 0, Final residual = 0, No Iterations 0
diagonal:  Solving for rhoUx, Initial residual = 0, Final residual = 0, No Iterations 0
diagonal:  Solving for rhoUy, Initial residual = 0, Final residual = 0, No Iterations 0
diagonal:  Solving for rhoUz, Initial residual = 0, Final residual = 0, No Iterations 0
diagonal:  Solving for rhoE, Initial residual = 0, Final residual = 0, No Iterations 0
ExecutionTime = 0.38 s  ClockTime = 0 s
max(div(Bf)) = 0  average(div(Bf)) = 0


Courant Number mean: 0 max: 0.499904
deltaT = 4.88188e-05
Time = 0.00189609

RKStage:: 1
RKStage:: 2
RKStage:: 3
diagonal:  Solving for rho, Initial residual = 0, Final residual = 0, No Iterations 0
diagonal:  Solving for By, Initial residual = 0, Final residual = 0, No Iterations 0
diagonal:  Solving for Bz, Initial residual = 0, Final residual = 0, No Iterations 0
diagonal:  Solving for rhoUx, Initial residual = 0, Final residual = 0, No Iterations 0
diagonal:  Solving for rhoUy, Initial residual = 0, Final residual = 0, No Iterations 0
diagonal:  Solving for rhoUz, Initial residual = 0, Final residual = 0, No Iterations 0
diagonal:  Solving for rhoE, Initial residual = 0, Final residual = 0, No Iterations 0
ExecutionTime = 0.39 s  ClockTime = 0 s
max(div(Bf)) = 0  average(div(Bf)) = 0


Courant Number mean: 0 max: 0.499904
deltaT = 4.88188e-05
Time = 0.0019449

RKStage:: 1
RKStage:: 2
RKStage:: 3
diagonal:  Solving for rho, Initial residual = 0, Final residual = 0, No Iterations 0
diagonal:  Solving for By, Initial residual = 0, Final residual = 0, No Iterations 0
diagonal:  Solving for Bz, Initial residual = 0, Final residual = 0, No Iterations 0
diagonal:  Solving for rhoUx, Initial residual = 0, Final residual = 0, No Iterations 0
diagonal:  Solving for rhoUy, Initial residual = 0, Final residual = 0, No Iterations 0
diagonal:  Solving for rhoUz, Initial residual = 0, Final residual = 0, No Iterations 0
diagonal:  Solving for rhoE, Initial residual = 0, Final residual = 0, No Iterations 0
ExecutionTime = 0.4 s  ClockTime = 0 s
max(div(Bf)) = 0  average(div(Bf)) = 0


Courant Number mean: 0 max: 0.499904
deltaT = 4.88188e-05
Time = 0.00199372

RKStage:: 1
RKStage:: 2
RKStage:: 3
diagonal:  Solving for rho, Initial residual = 0, Final residual = 0, No Iterations 0
diagonal:  Solving for By, Initial residual = 0, Final residual = 0, No Iterations 0
diagonal:  Solving for Bz, Initial residual = 0, Final residual = 0, No Iterations 0
diagonal:  Solving for rhoUx, Initial residual = 0, Final residual = 0, No Iterations 0
diagonal:  Solving for rhoUy, Initial residual = 0, Final residual = 0, No Iterations 0
diagonal:  Solving for rhoUz, Initial residual = 0, Final residual = 0, No Iterations 0
diagonal:  Solving for rhoE, Initial residual = 0, Final residual = 0, No Iterations 0
ExecutionTime = 0.41 s  ClockTime = 0 s
max(div(Bf)) = 0  average(div(Bf)) = 0


Courant Number mean: 0 max: 0.499904
deltaT = 4.88188e-05
Time = 0.00204254

RKStage:: 1
RKStage:: 2
RKStage:: 3
diagonal:  Solving for rho, Initial residual = 0, Final residual = 0, No Iterations 0
diagonal:  Solving for By, Initial residual = 0, Final residual = 0, No Iterations 0
diagonal:  Solving for Bz, Initial residual = 0, Final residual = 0, No Iterations 0
diagonal:  Solving for rhoUx, Initial residual = 0, Final residual = 0, No Iterations 0
diagonal:  Solving for rhoUy, Initial residual = 0, Final residual = 0, No Iterations 0
diagonal:  Solving for rhoUz, Initial residual = 0, Final residual = 0, No Iterations 0
diagonal:  Solving for rhoE, Initial residual = 0, Final residual = 0, No Iterations 0
ExecutionTime = 0.42 s  ClockTime = 0 s
max(div(Bf)) = 0  average(div(Bf)) = 0


Courant Number mean: 0 max: 0.499904
deltaT = 4.88188e-05
Time = 0.00209136

RKStage:: 1
RKStage:: 2
RKStage:: 3
diagonal:  Solving for rho, Initial residual = 0, Final residual = 0, No Iterations 0
diagonal:  Solving for By, Initial residual = 0, Final residual = 0, No Iterations 0
diagonal:  Solving for Bz, Initial residual = 0, Final residual = 0, No Iterations 0
diagonal:  Solving for rhoUx, Initial residual = 0, Final residual = 0, No Iterations 0
diagonal:  Solving for rhoUy, Initial residual = 0, Final residual = 0, No Iterations 0
diagonal:  Solving for rhoUz, Initial residual = 0, Final residual = 0, No Iterations 0
diagonal:  Solving for rhoE, Initial residual = 0, Final residual = 0, No Iterations 0
ExecutionTime = 0.43 s  ClockTime = 0 s
max(div(Bf)) = 0  average(div(Bf)) = 0


Courant Number mean: 0 max: 0.499904
deltaT = 4.88188e-05
Time = 0.00214018

RKStage:: 1
RKStage:: 2
RKStage:: 3
diagonal:  Solving for rho, Initial residual = 0, Final residual = 0, No Iterations 0
diagonal:  Solving for By, Initial residual = 0, Final residual = 0, No Iterations 0
diagonal:  Solving for Bz, Initial residual = 0, Final residual = 0, No Iterations 0
diagonal:  Solving for rhoUx, Initial residual = 0, Final residual = 0, No Iterations 0
diagonal:  Solving for rhoUy, Initial residual = 0, Final residual = 0, No Iterations 0
diagonal:  Solving for rhoUz, Initial residual = 0, Final residual = 0, No Iterations 0
diagonal:  Solving for rhoE, Initial residual = 0, Final residual = 0, No Iterations 0
ExecutionTime = 0.44 s  ClockTime = 0 s
max(div(Bf)) = 0  average(div(Bf)) = 0


Courant Number mean: 0 max: 0.499904
deltaT = 4.88188e-05
Time = 0.002189

RKStage:: 1
RKStage:: 2
RKStage:: 3
diagonal:  Solving for rho, Initial residual = 0, Final residual = 0, No Iterations 0
diagonal:  Solving for By, Initial residual = 0, Final residual = 0, No Iterations 0
diagonal:  Solving for Bz, Initial residual = 0, Final residual = 0, No Iterations 0
diagonal:  Solving for rhoUx, Initial residual = 0, Final residual = 0, No Iterations 0
diagonal:  Solving for rhoUy, Initial residual = 0, Final residual = 0, No Iterations 0
diagonal:  Solving for rhoUz, Initial residual = 0, Final residual = 0, No Iterations 0
diagonal:  Solving for rhoE, Initial residual = 0, Final residual = 0, No Iterations 0
ExecutionTime = 0.44 s  ClockTime = 0 s
max(div(Bf)) = 0  average(div(Bf)) = 0


Courant Number mean: 0 max: 0.499904
deltaT = 4.88188e-05
Time = 0.00223782

RKStage:: 1
RKStage:: 2
RKStage:: 3
diagonal:  Solving for rho, Initial residual = 0, Final residual = 0, No Iterations 0
diagonal:  Solving for By, Initial residual = 0, Final residual = 0, No Iterations 0
diagonal:  Solving for Bz, Initial residual = 0, Final residual = 0, No Iterations 0
diagonal:  Solving for rhoUx, Initial residual = 0, Final residual = 0, No Iterations 0
diagonal:  Solving for rhoUy, Initial residual = 0, Final residual = 0, No Iterations 0
diagonal:  Solving for rhoUz, Initial residual = 0, Final residual = 0, No Iterations 0
diagonal:  Solving for rhoE, Initial residual = 0, Final residual = 0, No Iterations 0
ExecutionTime = 0.45 s  ClockTime = 0 s
max(div(Bf)) = 0  average(div(Bf)) = 0


Courant Number mean: 0 max: 0.499904
deltaT = 4.88188e-05
Time = 0.00228664

RKStage:: 1
RKStage:: 2
RKStage:: 3
diagonal:  Solving for rho, Initial residual = 0, Final residual = 0, No Iterations 0
diagonal:  Solving for By, Initial residual = 0, Final residual = 0, No Iterations 0
diagonal:  Solving for Bz, Initial residual = 0, Final residual = 0, No Iterations 0
diagonal:  Solving for rhoUx, Initial residual = 0, Final residual = 0, No Iterations 0
diagonal:  Solving for rhoUy, Initial residual = 0, Final residual = 0, No Iterations 0
diagonal:  Solving for rhoUz, Initial residual = 0, Final residual = 0, No Iterations 0
diagonal:  Solving for rhoE, Initial residual = 0, Final residual = 0, No Iterations 0
ExecutionTime = 0.45 s  ClockTime = 0 s
max(div(Bf)) = 0  average(div(Bf)) = 0


Courant Number mean: 0 max: 0.499904
deltaT = 4.88188e-05
Time = 0.00233545

RKStage:: 1
RKStage:: 2
RKStage:: 3
diagonal:  Solving for rho, Initial residual = 0, Final residual = 0, No Iterations 0
diagonal:  Solving for By, Initial residual = 0, Final residual = 0, No Iterations 0
diagonal:  Solving for Bz, Initial residual = 0, Final residual = 0, No Iterations 0
diagonal:  Solving for rhoUx, Initial residual = 0, Final residual = 0, No Iterations 0
diagonal:  Solving for rhoUy, Initial residual = 0, Final residual = 0, No Iterations 0
diagonal:  Solving for rhoUz, Initial residual = 0, Final residual = 0, No Iterations 0
diagonal:  Solving for rhoE, Initial residual = 0, Final residual = 0, No Iterations 0
ExecutionTime = 0.46 s  ClockTime = 0 s
max(div(Bf)) = 0  average(div(Bf)) = 0


Courant Number mean: 0 max: 0.499904
deltaT = 4.88188e-05
Time = 0.00238427

RKStage:: 1
RKStage:: 2
RKStage:: 3
diagonal:  Solving for rho, Initial residual = 0, Final residual = 0, No Iterations 0
diagonal:  Solving for By, Initial residual = 0, Final residual = 0, No Iterations 0
diagonal:  Solving for Bz, Initial residual = 0, Final residual = 0, No Iterations 0
diagonal:  Solving for rhoUx, Initial residual = 0, Final residual = 0, No Iterations 0
diagonal:  Solving for rhoUy, Initial residual = 0, Final residual = 0, No Iterations 0
diagonal:  Solving for rhoUz, Initial residual = 0, Final residual = 0, No Iterations 0
diagonal:  Solving for rhoE, Initial residual = 0, Final residual = 0, No Iterations 0
ExecutionTime = 0.47 s  ClockTime = 0 s
max(div(Bf)) = 0  average(div(Bf)) = 0


Courant Number mean: 0 max: 0.499904
deltaT = 4.88188e-05
Time = 0.00243309

RKStage:: 1
RKStage:: 2
RKStage:: 3
diagonal:  Solving for rho, Initial residual = 0, Final residual = 0, No Iterations 0
diagonal:  Solving for By, Initial residual = 0, Final residual = 0, No Iterations 0
diagonal:  Solving for Bz, Initial residual = 0, Final residual = 0, No Iterations 0
diagonal:  Solving for rhoUx, Initial residual = 0, Final residual = 0, No Iterations 0
diagonal:  Solving for rhoUy, Initial residual = 0, Final residual = 0, No Iterations 0
diagonal:  Solving for rhoUz, Initial residual = 0, Final residual = 0, No Iterations 0
diagonal:  Solving for rhoE, Initial residual = 0, Final residual = 0, No Iterations 0
ExecutionTime = 0.48 s  ClockTime = 0 s
max(div(Bf)) = 0  average(div(Bf)) = 0


Courant Number mean: 0 max: 0.499904
deltaT = 4.88188e-05
Time = 0.00248191

RKStage:: 1
RKStage:: 2
RKStage:: 3
diagonal:  Solving for rho, Initial residual = 0, Final residual = 0, No Iterations 0
diagonal:  Solving for By, Initial residual = 0, Final residual = 0, No Iterations 0
diagonal:  Solving for Bz, Initial residual = 0, Final residual = 0, No Iterations 0
diagonal:  Solving for rhoUx, Initial residual = 0, Final residual = 0, No Iterations 0
diagonal:  Solving for rhoUy, Initial residual = 0, Final residual = 0, No Iterations 0
diagonal:  Solving for rhoUz, Initial residual = 0, Final residual = 0, No Iterations 0
diagonal:  Solving for rhoE, Initial residual = 0, Final residual = 0, No Iterations 0
ExecutionTime = 0.49 s  ClockTime = 0 s
max(div(Bf)) = 0  average(div(Bf)) = 0


Courant Number mean: 0 max: 0.499904
deltaT = 4.88188e-05
Time = 0.00253073

RKStage:: 1
RKStage:: 2
RKStage:: 3
diagonal:  Solving for rho, Initial residual = 0, Final residual = 0, No Iterations 0
diagonal:  Solving for By, Initial residual = 0, Final residual = 0, No Iterations 0
diagonal:  Solving for Bz, Initial residual = 0, Final residual = 0, No Iterations 0
diagonal:  Solving for rhoUx, Initial residual = 0, Final residual = 0, No Iterations 0
diagonal:  Solving for rhoUy, Initial residual = 0, Final residual = 0, No Iterations 0
diagonal:  Solving for rhoUz, Initial residual = 0, Final residual = 0, No Iterations 0
diagonal:  Solving for rhoE, Initial residual = 0, Final residual = 0, No Iterations 0
ExecutionTime = 0.5 s  ClockTime = 0 s
max(div(Bf)) = 0  average(div(Bf)) = 0


Courant Number mean: 0 max: 0.499904
deltaT = 4.88188e-05
Time = 0.00257955

RKStage:: 1
RKStage:: 2
RKStage:: 3
diagonal:  Solving for rho, Initial residual = 0, Final residual = 0, No Iterations 0
diagonal:  Solving for By, Initial residual = 0, Final residual = 0, No Iterations 0
diagonal:  Solving for Bz, Initial residual = 0, Final residual = 0, No Iterations 0
diagonal:  Solving for rhoUx, Initial residual = 0, Final residual = 0, No Iterations 0
diagonal:  Solving for rhoUy, Initial residual = 0, Final residual = 0, No Iterations 0
diagonal:  Solving for rhoUz, Initial residual = 0, Final residual = 0, No Iterations 0
diagonal:  Solving for rhoE, Initial residual = 0, Final residual = 0, No Iterations 0
ExecutionTime = 0.51 s  ClockTime = 0 s
max(div(Bf)) = 0  average(div(Bf)) = 0


Courant Number mean: 0 max: 0.499904
deltaT = 4.88188e-05
Time = 0.00262837

RKStage:: 1
RKStage:: 2
RKStage:: 3
diagonal:  Solving for rho, Initial residual = 0, Final residual = 0, No Iterations 0
diagonal:  Solving for By, Initial residual = 0, Final residual = 0, No Iterations 0
diagonal:  Solving for Bz, Initial residual = 0, Final residual = 0, No Iterations 0
diagonal:  Solving for rhoUx, Initial residual = 0, Final residual = 0, No Iterations 0
diagonal:  Solving for rhoUy, Initial residual = 0, Final residual = 0, No Iterations 0
diagonal:  Solving for rhoUz, Initial residual = 0, Final residual = 0, No Iterations 0
diagonal:  Solving for rhoE, Initial residual = 0, Final residual = 0, No Iterations 0
ExecutionTime = 0.51 s  ClockTime = 0 s
max(div(Bf)) = 0  average(div(Bf)) = 0


Courant Number mean: 0 max: 0.499904
deltaT = 4.88188e-05
Time = 0.00267719

RKStage:: 1
RKStage:: 2
RKStage:: 3
diagonal:  Solving for rho, Initial residual = 0, Final residual = 0, No Iterations 0
diagonal:  Solving for By, Initial residual = 0, Final residual = 0, No Iterations 0
diagonal:  Solving for Bz, Initial residual = 0, Final residual = 0, No Iterations 0
diagonal:  Solving for rhoUx, Initial residual = 0, Final residual = 0, No Iterations 0
diagonal:  Solving for rhoUy, Initial residual = 0, Final residual = 0, No Iterations 0
diagonal:  Solving for rhoUz, Initial residual = 0, Final residual = 0, No Iterations 0
diagonal:  Solving for rhoE, Initial residual = 0, Final residual = 0, No Iterations 0
ExecutionTime = 0.52 s  ClockTime = 0 s
max(div(Bf)) = 0  average(div(Bf)) = 0


Courant Number mean: 0 max: 0.499904
deltaT = 4.88188e-05
Time = 0.002726

RKStage:: 1
RKStage:: 2
RKStage:: 3
diagonal:  Solving for rho, Initial residual = 0, Final residual = 0, No Iterations 0
diagonal:  Solving for By, Initial residual = 0, Final residual = 0, No Iterations 0
diagonal:  Solving for Bz, Initial residual = 0, Final residual = 0, No Iterations 0
diagonal:  Solving for rhoUx, Initial residual = 0, Final residual = 0, No Iterations 0
diagonal:  Solving for rhoUy, Initial residual = 0, Final residual = 0, No Iterations 0
diagonal:  Solving for rhoUz, Initial residual = 0, Final residual = 0, No Iterations 0
diagonal:  Solving for rhoE, Initial residual = 0, Final residual = 0, No Iterations 0
ExecutionTime = 0.53 s  ClockTime = 0 s
max(div(Bf)) = 0  average(div(Bf)) = 0


Courant Number mean: 0 max: 0.499904
deltaT = 4.88188e-05
Time = 0.00277482

RKStage:: 1
RKStage:: 2
RKStage:: 3
diagonal:  Solving for rho, Initial residual = 0, Final residual = 0, No Iterations 0
diagonal:  Solving for By, Initial residual = 0, Final residual = 0, No Iterations 0
diagonal:  Solving for Bz, Initial residual = 0, Final residual = 0, No Iterations 0
diagonal:  Solving for rhoUx, Initial residual = 0, Final residual = 0, No Iterations 0
diagonal:  Solving for rhoUy, Initial residual = 0, Final residual = 0, No Iterations 0
diagonal:  Solving for rhoUz, Initial residual = 0, Final residual = 0, No Iterations 0
diagonal:  Solving for rhoE, Initial residual = 0, Final residual = 0, No Iterations 0
ExecutionTime = 0.54 s  ClockTime = 0 s
max(div(Bf)) = 0  average(div(Bf)) = 0


Courant Number mean: 0 max: 0.499904
deltaT = 4.88188e-05
Time = 0.00282364

RKStage:: 1
RKStage:: 2
RKStage:: 3
diagonal:  Solving for rho, Initial residual = 0, Final residual = 0, No Iterations 0
diagonal:  Solving for By, Initial residual = 0, Final residual = 0, No Iterations 0
diagonal:  Solving for Bz, Initial residual = 0, Final residual = 0, No Iterations 0
diagonal:  Solving for rhoUx, Initial residual = 0, Final residual = 0, No Iterations 0
diagonal:  Solving for rhoUy, Initial residual = 0, Final residual = 0, No Iterations 0
diagonal:  Solving for rhoUz, Initial residual = 0, Final residual = 0, No Iterations 0
diagonal:  Solving for rhoE, Initial residual = 0, Final residual = 0, No Iterations 0
ExecutionTime = 0.55 s  ClockTime = 0 s
max(div(Bf)) = 0  average(div(Bf)) = 0


Courant Number mean: 0 max: 0.499904
deltaT = 4.88188e-05
Time = 0.00287246

RKStage:: 1
RKStage:: 2
RKStage:: 3
diagonal:  Solving for rho, Initial residual = 0, Final residual = 0, No Iterations 0
diagonal:  Solving for By, Initial residual = 0, Final residual = 0, No Iterations 0
diagonal:  Solving for Bz, Initial residual = 0, Final residual = 0, No Iterations 0
diagonal:  Solving for rhoUx, Initial residual = 0, Final residual = 0, No Iterations 0
diagonal:  Solving for rhoUy, Initial residual = 0, Final residual = 0, No Iterations 0
diagonal:  Solving for rhoUz, Initial residual = 0, Final residual = 0, No Iterations 0
diagonal:  Solving for rhoE, Initial residual = 0, Final residual = 0, No Iterations 0
ExecutionTime = 0.56 s  ClockTime = 0 s
max(div(Bf)) = 0  average(div(Bf)) = 0


Courant Number mean: 0 max: 0.499904
deltaT = 4.88188e-05
Time = 0.00292128

RKStage:: 1
RKStage:: 2
RKStage:: 3
diagonal:  Solving for rho, Initial residual = 0, Final residual = 0, No Iterations 0
diagonal:  Solving for By, Initial residual = 0, Final residual = 0, No Iterations 0
diagonal:  Solving for Bz, Initial residual = 0, Final residual = 0, No Iterations 0
diagonal:  Solving for rhoUx, Initial residual = 0, Final residual = 0, No Iterations 0
diagonal:  Solving for rhoUy, Initial residual = 0, Final residual = 0, No Iterations 0
diagonal:  Solving for rhoUz, Initial residual = 0, Final residual = 0, No Iterations 0
diagonal:  Solving for rhoE, Initial residual = 0, Final residual = 0, No Iterations 0
ExecutionTime = 0.57 s  ClockTime = 0 s
max(div(Bf)) = 0  average(div(Bf)) = 0


Courant Number mean: 0 max: 0.499904
deltaT = 4.88188e-05
Time = 0.0029701

RKStage:: 1
RKStage:: 2
RKStage:: 3
diagonal:  Solving for rho, Initial residual = 0, Final residual = 0, No Iterations 0
diagonal:  Solving for By, Initial residual = 0, Final residual = 0, No Iterations 0
diagonal:  Solving for Bz, Initial residual = 0, Final residual = 0, No Iterations 0
diagonal:  Solving for rhoUx, Initial residual = 0, Final residual = 0, No Iterations 0
diagonal:  Solving for rhoUy, Initial residual = 0, Final residual = 0, No Iterations 0
diagonal:  Solving for rhoUz, Initial residual = 0, Final residual = 0, No Iterations 0
diagonal:  Solving for rhoE, Initial residual = 0, Final residual = 0, No Iterations 0
ExecutionTime = 0.58 s  ClockTime = 0 s
max(div(Bf)) = 0  average(div(Bf)) = 0


Courant Number mean: 0 max: 0.499904
deltaT = 4.88188e-05
Time = 0.00301892

RKStage:: 1
RKStage:: 2
RKStage:: 3
diagonal:  Solving for rho, Initial residual = 0, Final residual = 0, No Iterations 0
diagonal:  Solving for By, Initial residual = 0, Final residual = 0, No Iterations 0
diagonal:  Solving for Bz, Initial residual = 0, Final residual = 0, No Iterations 0
diagonal:  Solving for rhoUx, Initial residual = 0, Final residual = 0, No Iterations 0
diagonal:  Solving for rhoUy, Initial residual = 0, Final residual = 0, No Iterations 0
diagonal:  Solving for rhoUz, Initial residual = 0, Final residual = 0, No Iterations 0
diagonal:  Solving for rhoE, Initial residual = 0, Final residual = 0, No Iterations 0
ExecutionTime = 0.59 s  ClockTime = 0 s
max(div(Bf)) = 0  average(div(Bf)) = 0


Courant Number mean: 0 max: 0.499904
deltaT = 4.88188e-05
Time = 0.00306774

RKStage:: 1
RKStage:: 2
RKStage:: 3
diagonal:  Solving for rho, Initial residual = 0, Final residual = 0, No Iterations 0
diagonal:  Solving for By, Initial residual = 0, Final residual = 0, No Iterations 0
diagonal:  Solving for Bz, Initial residual = 0, Final residual = 0, No Iterations 0
diagonal:  Solving for rhoUx, Initial residual = 0, Final residual = 0, No Iterations 0
diagonal:  Solving for rhoUy, Initial residual = 0, Final residual = 0, No Iterations 0
diagonal:  Solving for rhoUz, Initial residual = 0, Final residual = 0, No Iterations 0
diagonal:  Solving for rhoE, Initial residual = 0, Final residual = 0, No Iterations 0
ExecutionTime = 0.59 s  ClockTime = 0 s
max(div(Bf)) = 0  average(div(Bf)) = 0


Courant Number mean: 0 max: 0.499904
deltaT = 4.88188e-05
Time = 0.00311655

RKStage:: 1
RKStage:: 2
RKStage:: 3
diagonal:  Solving for rho, Initial residual = 0, Final residual = 0, No Iterations 0
diagonal:  Solving for By, Initial residual = 0, Final residual = 0, No Iterations 0
diagonal:  Solving for Bz, Initial residual = 0, Final residual = 0, No Iterations 0
diagonal:  Solving for rhoUx, Initial residual = 0, Final residual = 0, No Iterations 0
diagonal:  Solving for rhoUy, Initial residual = 0, Final residual = 0, No Iterations 0
diagonal:  Solving for rhoUz, Initial residual = 0, Final residual = 0, No Iterations 0
diagonal:  Solving for rhoE, Initial residual = 0, Final residual = 0, No Iterations 0
ExecutionTime = 0.6 s  ClockTime = 0 s
max(div(Bf)) = 0  average(div(Bf)) = 0


Courant Number mean: 0 max: 0.499904
deltaT = 4.88188e-05
Time = 0.00316537

RKStage:: 1
RKStage:: 2
RKStage:: 3
diagonal:  Solving for rho, Initial residual = 0, Final residual = 0, No Iterations 0
diagonal:  Solving for By, Initial residual = 0, Final residual = 0, No Iterations 0
diagonal:  Solving for Bz, Initial residual = 0, Final residual = 0, No Iterations 0
diagonal:  Solving for rhoUx, Initial residual = 0, Final residual = 0, No Iterations 0
diagonal:  Solving for rhoUy, Initial residual = 0, Final residual = 0, No Iterations 0
diagonal:  Solving for rhoUz, Initial residual = 0, Final residual = 0, No Iterations 0
diagonal:  Solving for rhoE, Initial residual = 0, Final residual = 0, No Iterations 0
ExecutionTime = 0.61 s  ClockTime = 0 s
max(div(Bf)) = 0  average(div(Bf)) = 0


Courant Number mean: 0 max: 0.499904
deltaT = 4.88188e-05
Time = 0.00321419

RKStage:: 1
RKStage:: 2
RKStage:: 3
diagonal:  Solving for rho, Initial residual = 0, Final residual = 0, No Iterations 0
diagonal:  Solving for By, Initial residual = 0, Final residual = 0, No Iterations 0
diagonal:  Solving for Bz, Initial residual = 0, Final residual = 0, No Iterations 0
diagonal:  Solving for rhoUx, Initial residual = 0, Final residual = 0, No Iterations 0
diagonal:  Solving for rhoUy, Initial residual = 0, Final residual = 0, No Iterations 0
diagonal:  Solving for rhoUz, Initial residual = 0, Final residual = 0, No Iterations 0
diagonal:  Solving for rhoE, Initial residual = 0, Final residual = 0, No Iterations 0
ExecutionTime = 0.62 s  ClockTime = 0 s
max(div(Bf)) = 0  average(div(Bf)) = 0


Courant Number mean: 0 max: 0.499904
deltaT = 4.88188e-05
Time = 0.00326301

RKStage:: 1
RKStage:: 2
RKStage:: 3
diagonal:  Solving for rho, Initial residual = 0, Final residual = 0, No Iterations 0
diagonal:  Solving for By, Initial residual = 0, Final residual = 0, No Iterations 0
diagonal:  Solving for Bz, Initial residual = 0, Final residual = 0, No Iterations 0
diagonal:  Solving for rhoUx, Initial residual = 0, Final residual = 0, No Iterations 0
diagonal:  Solving for rhoUy, Initial residual = 0, Final residual = 0, No Iterations 0
diagonal:  Solving for rhoUz, Initial residual = 0, Final residual = 0, No Iterations 0
diagonal:  Solving for rhoE, Initial residual = 0, Final residual = 0, No Iterations 0
ExecutionTime = 0.63 s  ClockTime = 0 s
max(div(Bf)) = 0  average(div(Bf)) = 0


Courant Number mean: 0 max: 0.499904
deltaT = 4.88188e-05
Time = 0.00331183

RKStage:: 1
RKStage:: 2
RKStage:: 3
diagonal:  Solving for rho, Initial residual = 0, Final residual = 0, No Iterations 0
diagonal:  Solving for By, Initial residual = 0, Final residual = 0, No Iterations 0
diagonal:  Solving for Bz, Initial residual = 0, Final residual = 0, No Iterations 0
diagonal:  Solving for rhoUx, Initial residual = 0, Final residual = 0, No Iterations 0
diagonal:  Solving for rhoUy, Initial residual = 0, Final residual = 0, No Iterations 0
diagonal:  Solving for rhoUz, Initial residual = 0, Final residual = 0, No Iterations 0
diagonal:  Solving for rhoE, Initial residual = 0, Final residual = 0, No Iterations 0
ExecutionTime = 0.64 s  ClockTime = 0 s
max(div(Bf)) = 0  average(div(Bf)) = 0


Courant Number mean: 0 max: 0.499904
deltaT = 4.88188e-05
Time = 0.00336065

RKStage:: 1
RKStage:: 2
RKStage:: 3
diagonal:  Solving for rho, Initial residual = 0, Final residual = 0, No Iterations 0
diagonal:  Solving for By, Initial residual = 0, Final residual = 0, No Iterations 0
diagonal:  Solving for Bz, Initial residual = 0, Final residual = 0, No Iterations 0
diagonal:  Solving for rhoUx, Initial residual = 0, Final residual = 0, No Iterations 0
diagonal:  Solving for rhoUy, Initial residual = 0, Final residual = 0, No Iterations 0
diagonal:  Solving for rhoUz, Initial residual = 0, Final residual = 0, No Iterations 0
diagonal:  Solving for rhoE, Initial residual = 0, Final residual = 0, No Iterations 0
ExecutionTime = 0.65 s  ClockTime = 0 s
max(div(Bf)) = 0  average(div(Bf)) = 0


Courant Number mean: 0 max: 0.499904
deltaT = 4.88188e-05
Time = 0.00340947

RKStage:: 1
RKStage:: 2
RKStage:: 3
diagonal:  Solving for rho, Initial residual = 0, Final residual = 0, No Iterations 0
diagonal:  Solving for By, Initial residual = 0, Final residual = 0, No Iterations 0
diagonal:  Solving for Bz, Initial residual = 0, Final residual = 0, No Iterations 0
diagonal:  Solving for rhoUx, Initial residual = 0, Final residual = 0, No Iterations 0
diagonal:  Solving for rhoUy, Initial residual = 0, Final residual = 0, No Iterations 0
diagonal:  Solving for rhoUz, Initial residual = 0, Final residual = 0, No Iterations 0
diagonal:  Solving for rhoE, Initial residual = 0, Final residual = 0, No Iterations 0
ExecutionTime = 0.66 s  ClockTime = 0 s
max(div(Bf)) = 0  average(div(Bf)) = 0


Courant Number mean: 0 max: 0.499904
deltaT = 4.88188e-05
Time = 0.00345829

RKStage:: 1
RKStage:: 2
RKStage:: 3
diagonal:  Solving for rho, Initial residual = 0, Final residual = 0, No Iterations 0
diagonal:  Solving for By, Initial residual = 0, Final residual = 0, No Iterations 0
diagonal:  Solving for Bz, Initial residual = 0, Final residual = 0, No Iterations 0
diagonal:  Solving for rhoUx, Initial residual = 0, Final residual = 0, No Iterations 0
diagonal:  Solving for rhoUy, Initial residual = 0, Final residual = 0, No Iterations 0
diagonal:  Solving for rhoUz, Initial residual = 0, Final residual = 0, No Iterations 0
diagonal:  Solving for rhoE, Initial residual = 0, Final residual = 0, No Iterations 0
ExecutionTime = 0.66 s  ClockTime = 0 s
max(div(Bf)) = 0  average(div(Bf)) = 0


Courant Number mean: 0 max: 0.499904
deltaT = 4.88188e-05
Time = 0.0035071

RKStage:: 1
RKStage:: 2
RKStage:: 3
diagonal:  Solving for rho, Initial residual = 0, Final residual = 0, No Iterations 0
diagonal:  Solving for By, Initial residual = 0, Final residual = 0, No Iterations 0
diagonal:  Solving for Bz, Initial residual = 0, Final residual = 0, No Iterations 0
diagonal:  Solving for rhoUx, Initial residual = 0, Final residual = 0, No Iterations 0
diagonal:  Solving for rhoUy, Initial residual = 0, Final residual = 0, No Iterations 0
diagonal:  Solving for rhoUz, Initial residual = 0, Final residual = 0, No Iterations 0
diagonal:  Solving for rhoE, Initial residual = 0, Final residual = 0, No Iterations 0
ExecutionTime = 0.67 s  ClockTime = 0 s
max(div(Bf)) = 0  average(div(Bf)) = 0


Courant Number mean: 0 max: 0.499904
deltaT = 4.88188e-05
Time = 0.00355592

RKStage:: 1
RKStage:: 2
RKStage:: 3
diagonal:  Solving for rho, Initial residual = 0, Final residual = 0, No Iterations 0
diagonal:  Solving for By, Initial residual = 0, Final residual = 0, No Iterations 0
diagonal:  Solving for Bz, Initial residual = 0, Final residual = 0, No Iterations 0
diagonal:  Solving for rhoUx, Initial residual = 0, Final residual = 0, No Iterations 0
diagonal:  Solving for rhoUy, Initial residual = 0, Final residual = 0, No Iterations 0
diagonal:  Solving for rhoUz, Initial residual = 0, Final residual = 0, No Iterations 0
diagonal:  Solving for rhoE, Initial residual = 0, Final residual = 0, No Iterations 0
ExecutionTime = 0.68 s  ClockTime = 0 s
max(div(Bf)) = 0  average(div(Bf)) = 0


Courant Number mean: 0 max: 0.499904
deltaT = 4.88188e-05
Time = 0.00360474

RKStage:: 1
RKStage:: 2
RKStage:: 3
diagonal:  Solving for rho, Initial residual = 0, Final residual = 0, No Iterations 0
diagonal:  Solving for By, Initial residual = 0, Final residual = 0, No Iterations 0
diagonal:  Solving for Bz, Initial residual = 0, Final residual = 0, No Iterations 0
diagonal:  Solving for rhoUx, Initial residual = 0, Final residual = 0, No Iterations 0
diagonal:  Solving for rhoUy, Initial residual = 0, Final residual = 0, No Iterations 0
diagonal:  Solving for rhoUz, Initial residual = 0, Final residual = 0, No Iterations 0
diagonal:  Solving for rhoE, Initial residual = 0, Final residual = 0, No Iterations 0
ExecutionTime = 0.69 s  ClockTime = 0 s
max(div(Bf)) = 0  average(div(Bf)) = 0


Courant Number mean: 0 max: 0.499904
deltaT = 4.88188e-05
Time = 0.00365356

RKStage:: 1
RKStage:: 2
RKStage:: 3
diagonal:  Solving for rho, Initial residual = 0, Final residual = 0, No Iterations 0
diagonal:  Solving for By, Initial residual = 0, Final residual = 0, No Iterations 0
diagonal:  Solving for Bz, Initial residual = 0, Final residual = 0, No Iterations 0
diagonal:  Solving for rhoUx, Initial residual = 0, Final residual = 0, No Iterations 0
diagonal:  Solving for rhoUy, Initial residual = 0, Final residual = 0, No Iterations 0
diagonal:  Solving for rhoUz, Initial residual = 0, Final residual = 0, No Iterations 0
diagonal:  Solving for rhoE, Initial residual = 0, Final residual = 0, No Iterations 0
ExecutionTime = 0.7 s  ClockTime = 0 s
max(div(Bf)) = 0  average(div(Bf)) = 0


Courant Number mean: 0 max: 0.499904
deltaT = 4.88188e-05
Time = 0.00370238

RKStage:: 1
RKStage:: 2
RKStage:: 3
diagonal:  Solving for rho, Initial residual = 0, Final residual = 0, No Iterations 0
diagonal:  Solving for By, Initial residual = 0, Final residual = 0, No Iterations 0
diagonal:  Solving for Bz, Initial residual = 0, Final residual = 0, No Iterations 0
diagonal:  Solving for rhoUx, Initial residual = 0, Final residual = 0, No Iterations 0
diagonal:  Solving for rhoUy, Initial residual = 0, Final residual = 0, No Iterations 0
diagonal:  Solving for rhoUz, Initial residual = 0, Final residual = 0, No Iterations 0
diagonal:  Solving for rhoE, Initial residual = 0, Final residual = 0, No Iterations 0
ExecutionTime = 0.71 s  ClockTime = 0 s
max(div(Bf)) = 0  average(div(Bf)) = 0


Courant Number mean: 0 max: 0.499904
deltaT = 4.88188e-05
Time = 0.0037512

RKStage:: 1
RKStage:: 2
RKStage:: 3
diagonal:  Solving for rho, Initial residual = 0, Final residual = 0, No Iterations 0
diagonal:  Solving for By, Initial residual = 0, Final residual = 0, No Iterations 0
diagonal:  Solving for Bz, Initial residual = 0, Final residual = 0, No Iterations 0
diagonal:  Solving for rhoUx, Initial residual = 0, Final residual = 0, No Iterations 0
diagonal:  Solving for rhoUy, Initial residual = 0, Final residual = 0, No Iterations 0
diagonal:  Solving for rhoUz, Initial residual = 0, Final residual = 0, No Iterations 0
diagonal:  Solving for rhoE, Initial residual = 0, Final residual = 0, No Iterations 0
ExecutionTime = 0.72 s  ClockTime = 0 s
max(div(Bf)) = 0  average(div(Bf)) = 0


Courant Number mean: 0 max: 0.499904
deltaT = 4.88188e-05
Time = 0.00380002

RKStage:: 1
RKStage:: 2
RKStage:: 3
diagonal:  Solving for rho, Initial residual = 0, Final residual = 0, No Iterations 0
diagonal:  Solving for By, Initial residual = 0, Final residual = 0, No Iterations 0
diagonal:  Solving for Bz, Initial residual = 0, Final residual = 0, No Iterations 0
diagonal:  Solving for rhoUx, Initial residual = 0, Final residual = 0, No Iterations 0
diagonal:  Solving for rhoUy, Initial residual = 0, Final residual = 0, No Iterations 0
diagonal:  Solving for rhoUz, Initial residual = 0, Final residual = 0, No Iterations 0
diagonal:  Solving for rhoE, Initial residual = 0, Final residual = 0, No Iterations 0
ExecutionTime = 0.73 s  ClockTime = 0 s
max(div(Bf)) = 0  average(div(Bf)) = 0


Courant Number mean: 0 max: 0.499904
deltaT = 4.88188e-05
Time = 0.00384884

RKStage:: 1
RKStage:: 2
RKStage:: 3
diagonal:  Solving for rho, Initial residual = 0, Final residual = 0, No Iterations 0
diagonal:  Solving for By, Initial residual = 0, Final residual = 0, No Iterations 0
diagonal:  Solving for Bz, Initial residual = 0, Final residual = 0, No Iterations 0
diagonal:  Solving for rhoUx, Initial residual = 0, Final residual = 0, No Iterations 0
diagonal:  Solving for rhoUy, Initial residual = 0, Final residual = 0, No Iterations 0
diagonal:  Solving for rhoUz, Initial residual = 0, Final residual = 0, No Iterations 0
diagonal:  Solving for rhoE, Initial residual = 0, Final residual = 0, No Iterations 0
ExecutionTime = 0.73 s  ClockTime = 0 s
max(div(Bf)) = 0  average(div(Bf)) = 0


Courant Number mean: 0 max: 0.499904
deltaT = 4.88188e-05
Time = 0.00389765

RKStage:: 1
RKStage:: 2
RKStage:: 3
diagonal:  Solving for rho, Initial residual = 0, Final residual = 0, No Iterations 0
diagonal:  Solving for By, Initial residual = 0, Final residual = 0, No Iterations 0
diagonal:  Solving for Bz, Initial residual = 0, Final residual = 0, No Iterations 0
diagonal:  Solving for rhoUx, Initial residual = 0, Final residual = 0, No Iterations 0
diagonal:  Solving for rhoUy, Initial residual = 0, Final residual = 0, No Iterations 0
diagonal:  Solving for rhoUz, Initial residual = 0, Final residual = 0, No Iterations 0
diagonal:  Solving for rhoE, Initial residual = 0, Final residual = 0, No Iterations 0
ExecutionTime = 0.74 s  ClockTime = 0 s
max(div(Bf)) = 0  average(div(Bf)) = 0


Courant Number mean: 0 max: 0.499904
deltaT = 4.88188e-05
Time = 0.00394647

RKStage:: 1
RKStage:: 2
RKStage:: 3
diagonal:  Solving for rho, Initial residual = 0, Final residual = 0, No Iterations 0
diagonal:  Solving for By, Initial residual = 0, Final residual = 0, No Iterations 0
diagonal:  Solving for Bz, Initial residual = 0, Final residual = 0, No Iterations 0
diagonal:  Solving for rhoUx, Initial residual = 0, Final residual = 0, No Iterations 0
diagonal:  Solving for rhoUy, Initial residual = 0, Final residual = 0, No Iterations 0
diagonal:  Solving for rhoUz, Initial residual = 0, Final residual = 0, No Iterations 0
diagonal:  Solving for rhoE, Initial residual = 0, Final residual = 0, No Iterations 0
ExecutionTime = 0.75 s  ClockTime = 0 s
max(div(Bf)) = 0  average(div(Bf)) = 0


Courant Number mean: 0 max: 0.499904
deltaT = 4.88188e-05
Time = 0.00399529

RKStage:: 1
RKStage:: 2
RKStage:: 3
diagonal:  Solving for rho, Initial residual = 0, Final residual = 0, No Iterations 0
diagonal:  Solving for By, Initial residual = 0, Final residual = 0, No Iterations 0
diagonal:  Solving for Bz, Initial residual = 0, Final residual = 0, No Iterations 0
diagonal:  Solving for rhoUx, Initial residual = 0, Final residual = 0, No Iterations 0
diagonal:  Solving for rhoUy, Initial residual = 0, Final residual = 0, No Iterations 0
diagonal:  Solving for rhoUz, Initial residual = 0, Final residual = 0, No Iterations 0
diagonal:  Solving for rhoE, Initial residual = 0, Final residual = 0, No Iterations 0
ExecutionTime = 0.76 s  ClockTime = 0 s
max(div(Bf)) = 0  average(div(Bf)) = 0


Courant Number mean: 0 max: 0.499904
deltaT = 4.88188e-05
Time = 0.00404411

RKStage:: 1
RKStage:: 2
RKStage:: 3
diagonal:  Solving for rho, Initial residual = 0, Final residual = 0, No Iterations 0
diagonal:  Solving for By, Initial residual = 0, Final residual = 0, No Iterations 0
diagonal:  Solving for Bz, Initial residual = 0, Final residual = 0, No Iterations 0
diagonal:  Solving for rhoUx, Initial residual = 0, Final residual = 0, No Iterations 0
diagonal:  Solving for rhoUy, Initial residual = 0, Final residual = 0, No Iterations 0
diagonal:  Solving for rhoUz, Initial residual = 0, Final residual = 0, No Iterations 0
diagonal:  Solving for rhoE, Initial residual = 0, Final residual = 0, No Iterations 0
ExecutionTime = 0.77 s  ClockTime = 0 s
max(div(Bf)) = 0  average(div(Bf)) = 0


Courant Number mean: 0 max: 0.499904
deltaT = 4.88188e-05
Time = 0.00409293

RKStage:: 1
RKStage:: 2
RKStage:: 3
diagonal:  Solving for rho, Initial residual = 0, Final residual = 0, No Iterations 0
diagonal:  Solving for By, Initial residual = 0, Final residual = 0, No Iterations 0
diagonal:  Solving for Bz, Initial residual = 0, Final residual = 0, No Iterations 0
diagonal:  Solving for rhoUx, Initial residual = 0, Final residual = 0, No Iterations 0
diagonal:  Solving for rhoUy, Initial residual = 0, Final residual = 0, No Iterations 0
diagonal:  Solving for rhoUz, Initial residual = 0, Final residual = 0, No Iterations 0
diagonal:  Solving for rhoE, Initial residual = 0, Final residual = 0, No Iterations 0
ExecutionTime = 0.78 s  ClockTime = 0 s
max(div(Bf)) = 0  average(div(Bf)) = 0


Courant Number mean: 0 max: 0.499904
deltaT = 4.88188e-05
Time = 0.00414175

RKStage:: 1
RKStage:: 2
RKStage:: 3
diagonal:  Solving for rho, Initial residual = 0, Final residual = 0, No Iterations 0
diagonal:  Solving for By, Initial residual = 0, Final residual = 0, No Iterations 0
diagonal:  Solving for Bz, Initial residual = 0, Final residual = 0, No Iterations 0
diagonal:  Solving for rhoUx, Initial residual = 0, Final residual = 0, No Iterations 0
diagonal:  Solving for rhoUy, Initial residual = 0, Final residual = 0, No Iterations 0
diagonal:  Solving for rhoUz, Initial residual = 0, Final residual = 0, No Iterations 0
diagonal:  Solving for rhoE, Initial residual = 0, Final residual = 0, No Iterations 0
ExecutionTime = 0.79 s  ClockTime = 0 s
max(div(Bf)) = 0  average(div(Bf)) = 0


Courant Number mean: 0 max: 0.499904
deltaT = 4.88188e-05
Time = 0.00419057

RKStage:: 1
RKStage:: 2
RKStage:: 3
diagonal:  Solving for rho, Initial residual = 0, Final residual = 0, No Iterations 0
diagonal:  Solving for By, Initial residual = 0, Final residual = 0, No Iterations 0
diagonal:  Solving for Bz, Initial residual = 0, Final residual = 0, No Iterations 0
diagonal:  Solving for rhoUx, Initial residual = 0, Final residual = 0, No Iterations 0
diagonal:  Solving for rhoUy, Initial residual = 0, Final residual = 0, No Iterations 0
diagonal:  Solving for rhoUz, Initial residual = 0, Final residual = 0, No Iterations 0
diagonal:  Solving for rhoE, Initial residual = 0, Final residual = 0, No Iterations 0
ExecutionTime = 0.79 s  ClockTime = 0 s
max(div(Bf)) = 0  average(div(Bf)) = 0


Courant Number mean: 0 max: 0.499904
deltaT = 4.88188e-05
Time = 0.00423939

RKStage:: 1
RKStage:: 2
RKStage:: 3
diagonal:  Solving for rho, Initial residual = 0, Final residual = 0, No Iterations 0
diagonal:  Solving for By, Initial residual = 0, Final residual = 0, No Iterations 0
diagonal:  Solving for Bz, Initial residual = 0, Final residual = 0, No Iterations 0
diagonal:  Solving for rhoUx, Initial residual = 0, Final residual = 0, No Iterations 0
diagonal:  Solving for rhoUy, Initial residual = 0, Final residual = 0, No Iterations 0
diagonal:  Solving for rhoUz, Initial residual = 0, Final residual = 0, No Iterations 0
diagonal:  Solving for rhoE, Initial residual = 0, Final residual = 0, No Iterations 0
ExecutionTime = 0.8 s  ClockTime = 0 s
max(div(Bf)) = 0  average(div(Bf)) = 0


Courant Number mean: 0 max: 0.499904
deltaT = 4.88188e-05
Time = 0.00428821

RKStage:: 1
RKStage:: 2
RKStage:: 3
diagonal:  Solving for rho, Initial residual = 0, Final residual = 0, No Iterations 0
diagonal:  Solving for By, Initial residual = 0, Final residual = 0, No Iterations 0
diagonal:  Solving for Bz, Initial residual = 0, Final residual = 0, No Iterations 0
diagonal:  Solving for rhoUx, Initial residual = 0, Final residual = 0, No Iterations 0
diagonal:  Solving for rhoUy, Initial residual = 0, Final residual = 0, No Iterations 0
diagonal:  Solving for rhoUz, Initial residual = 0, Final residual = 0, No Iterations 0
diagonal:  Solving for rhoE, Initial residual = 0, Final residual = 0, No Iterations 0
ExecutionTime = 0.81 s  ClockTime = 0 s
max(div(Bf)) = 0  average(div(Bf)) = 0


Courant Number mean: 0 max: 0.499904
deltaT = 4.88188e-05
Time = 0.00433702

RKStage:: 1
RKStage:: 2
RKStage:: 3
diagonal:  Solving for rho, Initial residual = 0, Final residual = 0, No Iterations 0
diagonal:  Solving for By, Initial residual = 0, Final residual = 0, No Iterations 0
diagonal:  Solving for Bz, Initial residual = 0, Final residual = 0, No Iterations 0
diagonal:  Solving for rhoUx, Initial residual = 0, Final residual = 0, No Iterations 0
diagonal:  Solving for rhoUy, Initial residual = 0, Final residual = 0, No Iterations 0
diagonal:  Solving for rhoUz, Initial residual = 0, Final residual = 0, No Iterations 0
diagonal:  Solving for rhoE, Initial residual = 0, Final residual = 0, No Iterations 0
ExecutionTime = 0.82 s  ClockTime = 0 s
max(div(Bf)) = 0  average(div(Bf)) = 0


Courant Number mean: 0 max: 0.499904
deltaT = 4.88188e-05
Time = 0.00438584

RKStage:: 1
RKStage:: 2
RKStage:: 3
diagonal:  Solving for rho, Initial residual = 0, Final residual = 0, No Iterations 0
diagonal:  Solving for By, Initial residual = 0, Final residual = 0, No Iterations 0
diagonal:  Solving for Bz, Initial residual = 0, Final residual = 0, No Iterations 0
diagonal:  Solving for rhoUx, Initial residual = 0, Final residual = 0, No Iterations 0
diagonal:  Solving for rhoUy, Initial residual = 0, Final residual = 0, No Iterations 0
diagonal:  Solving for rhoUz, Initial residual = 0, Final residual = 0, No Iterations 0
diagonal:  Solving for rhoE, Initial residual = 0, Final residual = 0, No Iterations 0
ExecutionTime = 0.83 s  ClockTime = 0 s
max(div(Bf)) = 0  average(div(Bf)) = 0


Courant Number mean: 0 max: 0.499904
deltaT = 4.88188e-05
Time = 0.00443466

RKStage:: 1
RKStage:: 2
RKStage:: 3
diagonal:  Solving for rho, Initial residual = 0, Final residual = 0, No Iterations 0
diagonal:  Solving for By, Initial residual = 0, Final residual = 0, No Iterations 0
diagonal:  Solving for Bz, Initial residual = 0, Final residual = 0, No Iterations 0
diagonal:  Solving for rhoUx, Initial residual = 0, Final residual = 0, No Iterations 0
diagonal:  Solving for rhoUy, Initial residual = 0, Final residual = 0, No Iterations 0
diagonal:  Solving for rhoUz, Initial residual = 0, Final residual = 0, No Iterations 0
diagonal:  Solving for rhoE, Initial residual = 0, Final residual = 0, No Iterations 0
ExecutionTime = 0.84 s  ClockTime = 0 s
max(div(Bf)) = 0  average(div(Bf)) = 0


Courant Number mean: 0 max: 0.499904
deltaT = 4.88188e-05
Time = 0.00448348

RKStage:: 1
RKStage:: 2
RKStage:: 3
diagonal:  Solving for rho, Initial residual = 0, Final residual = 0, No Iterations 0
diagonal:  Solving for By, Initial residual = 0, Final residual = 0, No Iterations 0
diagonal:  Solving for Bz, Initial residual = 0, Final residual = 0, No Iterations 0
diagonal:  Solving for rhoUx, Initial residual = 0, Final residual = 0, No Iterations 0
diagonal:  Solving for rhoUy, Initial residual = 0, Final residual = 0, No Iterations 0
diagonal:  Solving for rhoUz, Initial residual = 0, Final residual = 0, No Iterations 0
diagonal:  Solving for rhoE, Initial residual = 0, Final residual = 0, No Iterations 0
ExecutionTime = 0.85 s  ClockTime = 0 s
max(div(Bf)) = 0  average(div(Bf)) = 0


Courant Number mean: 0 max: 0.499904
deltaT = 4.88188e-05
Time = 0.0045323

RKStage:: 1
RKStage:: 2
RKStage:: 3
diagonal:  Solving for rho, Initial residual = 0, Final residual = 0, No Iterations 0
diagonal:  Solving for By, Initial residual = 0, Final residual = 0, No Iterations 0
diagonal:  Solving for Bz, Initial residual = 0, Final residual = 0, No Iterations 0
diagonal:  Solving for rhoUx, Initial residual = 0, Final residual = 0, No Iterations 0
diagonal:  Solving for rhoUy, Initial residual = 0, Final residual = 0, No Iterations 0
diagonal:  Solving for rhoUz, Initial residual = 0, Final residual = 0, No Iterations 0
diagonal:  Solving for rhoE, Initial residual = 0, Final residual = 0, No Iterations 0
ExecutionTime = 0.86 s  ClockTime = 0 s
max(div(Bf)) = 0  average(div(Bf)) = 0


Courant Number mean: 0 max: 0.499904
deltaT = 4.88188e-05
Time = 0.00458112

RKStage:: 1
RKStage:: 2
RKStage:: 3
diagonal:  Solving for rho, Initial residual = 0, Final residual = 0, No Iterations 0
diagonal:  Solving for By, Initial residual = 0, Final residual = 0, No Iterations 0
diagonal:  Solving for Bz, Initial residual = 0, Final residual = 0, No Iterations 0
diagonal:  Solving for rhoUx, Initial residual = 0, Final residual = 0, No Iterations 0
diagonal:  Solving for rhoUy, Initial residual = 0, Final residual = 0, No Iterations 0
diagonal:  Solving for rhoUz, Initial residual = 0, Final residual = 0, No Iterations 0
diagonal:  Solving for rhoE, Initial residual = 0, Final residual = 0, No Iterations 0
ExecutionTime = 0.86 s  ClockTime = 0 s
max(div(Bf)) = 0  average(div(Bf)) = 0


Courant Number mean: 0 max: 0.499904
deltaT = 4.88188e-05
Time = 0.00462994

RKStage:: 1
RKStage:: 2
RKStage:: 3
[...]
Time = 0.0788293

RKStage:: 1
RKStage:: 2
RKStage:: 3
diagonal:  Solving for rho, Initial residual = 0, Final residual = 0, No Iterations 0
diagonal:  Solving for By, Initial residual = 0, Final residual = 0, No Iterations 0
diagonal:  Solving for Bz, Initial residual = 0, Final residual = 0, No Iterations 0
diagonal:  Solving for rhoUx, Initial residual = 0, Final residual = 0, No Iterations 0
diagonal:  Solving for rhoUy, Initial residual = 0, Final residual = 0, No Iterations 0
diagonal:  Solving for rhoUz, Initial residual = 0, Final residual = 0, No Iterations 0
diagonal:  Solving for rhoE, Initial residual = 0, Final residual = 0, No Iterations 0
ExecutionTime = 14.31 s  ClockTime = 14 s
max(div(Bf)) = 0  average(div(Bf)) = 0


Courant Number mean: 0 max: 0.499512
deltaT = 4.87805e-05
Time = 0.078878

RKStage:: 1
RKStage:: 2
RKStage:: 3
diagonal:  Solving for rho, Initial residual = 0, Final residual = 0, No Iterations 0
diagonal:  Solving for By, Initial residual = 0, Final residual = 0, No Iterations 0
diagonal:  Solving for Bz, Initial residual = 0, Final residual = 0, No Iterations 0
diagonal:  Solving for rhoUx, Initial residual = 0, Final residual = 0, No Iterations 0
diagonal:  Solving for rhoUy, Initial residual = 0, Final residual = 0, No Iterations 0
diagonal:  Solving for rhoUz, Initial residual = 0, Final residual = 0, No Iterations 0
diagonal:  Solving for rhoE, Initial residual = 0, Final residual = 0, No Iterations 0
ExecutionTime = 14.32 s  ClockTime = 14 s
max(div(Bf)) = 0  average(div(Bf)) = 0


Courant Number mean: 0 max: 0.499512
deltaT = 4.87805e-05
Time = 0.0789268

RKStage:: 1
RKStage:: 2
RKStage:: 3
diagonal:  Solving for rho, Initial residual = 0, Final residual = 0, No Iterations 0
diagonal:  Solving for By, Initial residual = 0, Final residual = 0, No Iterations 0
diagonal:  Solving for Bz, Initial residual = 0, Final residual = 0, No Iterations 0
diagonal:  Solving for rhoUx, Initial residual = 0, Final residual = 0, No Iterations 0
diagonal:  Solving for rhoUy, Initial residual = 0, Final residual = 0, No Iterations 0
diagonal:  Solving for rhoUz, Initial residual = 0, Final residual = 0, No Iterations 0
diagonal:  Solving for rhoE, Initial residual = 0, Final residual = 0, No Iterations 0
ExecutionTime = 14.33 s  ClockTime = 14 s
max(div(Bf)) = 0  average(div(Bf)) = 0


Courant Number mean: 0 max: 0.499512
deltaT = 4.87805e-05
Time = 0.0789756

RKStage:: 1
RKStage:: 2
RKStage:: 3
diagonal:  Solving for rho, Initial residual = 0, Final residual = 0, No Iterations 0
diagonal:  Solving for By, Initial residual = 0, Final residual = 0, No Iterations 0
diagonal:  Solving for Bz, Initial residual = 0, Final residual = 0, No Iterations 0
diagonal:  Solving for rhoUx, Initial residual = 0, Final residual = 0, No Iterations 0
diagonal:  Solving for rhoUy, Initial residual = 0, Final residual = 0, No Iterations 0
diagonal:  Solving for rhoUz, Initial residual = 0, Final residual = 0, No Iterations 0
diagonal:  Solving for rhoE, Initial residual = 0, Final residual = 0, No Iterations 0
ExecutionTime = 14.34 s  ClockTime = 14 s
max(div(Bf)) = 0  average(div(Bf)) = 0


Courant Number mean: 0 max: 0.499512
deltaT = 4.87805e-05
Time = 0.0790244

RKStage:: 1
RKStage:: 2
RKStage:: 3
diagonal:  Solving for rho, Initial residual = 0, Final residual = 0, No Iterations 0
diagonal:  Solving for By, Initial residual = 0, Final residual = 0, No Iterations 0
diagonal:  Solving for Bz, Initial residual = 0, Final residual = 0, No Iterations 0
diagonal:  Solving for rhoUx, Initial residual = 0, Final residual = 0, No Iterations 0
diagonal:  Solving for rhoUy, Initial residual = 0, Final residual = 0, No Iterations 0
diagonal:  Solving for rhoUz, Initial residual = 0, Final residual = 0, No Iterations 0
diagonal:  Solving for rhoE, Initial residual = 0, Final residual = 0, No Iterations 0
ExecutionTime = 14.35 s  ClockTime = 14 s
max(div(Bf)) = 0  average(div(Bf)) = 0


Courant Number mean: 0 max: 0.499512
deltaT = 4.87805e-05
Time = 0.0790732

RKStage:: 1
RKStage:: 2
RKStage:: 3
diagonal:  Solving for rho, Initial residual = 0, Final residual = 0, No Iterations 0
diagonal:  Solving for By, Initial residual = 0, Final residual = 0, No Iterations 0
diagonal:  Solving for Bz, Initial residual = 0, Final residual = 0, No Iterations 0
diagonal:  Solving for rhoUx, Initial residual = 0, Final residual = 0, No Iterations 0
diagonal:  Solving for rhoUy, Initial residual = 0, Final residual = 0, No Iterations 0
diagonal:  Solving for rhoUz, Initial residual = 0, Final residual = 0, No Iterations 0
diagonal:  Solving for rhoE, Initial residual = 0, Final residual = 0, No Iterations 0
ExecutionTime = 14.36 s  ClockTime = 14 s
max(div(Bf)) = 0  average(div(Bf)) = 0


Courant Number mean: 0 max: 0.499512
deltaT = 4.87805e-05
Time = 0.079122

RKStage:: 1
RKStage:: 2
RKStage:: 3
diagonal:  Solving for rho, Initial residual = 0, Final residual = 0, No Iterations 0
diagonal:  Solving for By, Initial residual = 0, Final residual = 0, No Iterations 0
diagonal:  Solving for Bz, Initial residual = 0, Final residual = 0, No Iterations 0
diagonal:  Solving for rhoUx, Initial residual = 0, Final residual = 0, No Iterations 0
diagonal:  Solving for rhoUy, Initial residual = 0, Final residual = 0, No Iterations 0
diagonal:  Solving for rhoUz, Initial residual = 0, Final residual = 0, No Iterations 0
diagonal:  Solving for rhoE, Initial residual = 0, Final residual = 0, No Iterations 0
ExecutionTime = 14.36 s  ClockTime = 14 s
max(div(Bf)) = 0  average(div(Bf)) = 0


Courant Number mean: 0 max: 0.499512
deltaT = 4.87805e-05
Time = 0.0791707

RKStage:: 1
RKStage:: 2
RKStage:: 3
diagonal:  Solving for rho, Initial residual = 0, Final residual = 0, No Iterations 0
diagonal:  Solving for By, Initial residual = 0, Final residual = 0, No Iterations 0
diagonal:  Solving for Bz, Initial residual = 0, Final residual = 0, No Iterations 0
diagonal:  Solving for rhoUx, Initial residual = 0, Final residual = 0, No Iterations 0
diagonal:  Solving for rhoUy, Initial residual = 0, Final residual = 0, No Iterations 0
diagonal:  Solving for rhoUz, Initial residual = 0, Final residual = 0, No Iterations 0
diagonal:  Solving for rhoE, Initial residual = 0, Final residual = 0, No Iterations 0
ExecutionTime = 14.37 s  ClockTime = 14 s
max(div(Bf)) = 0  average(div(Bf)) = 0


Courant Number mean: 0 max: 0.499512
deltaT = 4.87805e-05
Time = 0.0792195

RKStage:: 1
RKStage:: 2
RKStage:: 3
diagonal:  Solving for rho, Initial residual = 0, Final residual = 0, No Iterations 0
diagonal:  Solving for By, Initial residual = 0, Final residual = 0, No Iterations 0
diagonal:  Solving for Bz, Initial residual = 0, Final residual = 0, No Iterations 0
diagonal:  Solving for rhoUx, Initial residual = 0, Final residual = 0, No Iterations 0
diagonal:  Solving for rhoUy, Initial residual = 0, Final residual = 0, No Iterations 0
diagonal:  Solving for rhoUz, Initial residual = 0, Final residual = 0, No Iterations 0
diagonal:  Solving for rhoE, Initial residual = 0, Final residual = 0, No Iterations 0
ExecutionTime = 14.38 s  ClockTime = 14 s
max(div(Bf)) = 0  average(div(Bf)) = 0


Courant Number mean: 0 max: 0.499512
deltaT = 4.87805e-05
Time = 0.0792683

RKStage:: 1
RKStage:: 2
RKStage:: 3
diagonal:  Solving for rho, Initial residual = 0, Final residual = 0, No Iterations 0
diagonal:  Solving for By, Initial residual = 0, Final residual = 0, No Iterations 0
diagonal:  Solving for Bz, Initial residual = 0, Final residual = 0, No Iterations 0
diagonal:  Solving for rhoUx, Initial residual = 0, Final residual = 0, No Iterations 0
diagonal:  Solving for rhoUy, Initial residual = 0, Final residual = 0, No Iterations 0
diagonal:  Solving for rhoUz, Initial residual = 0, Final residual = 0, No Iterations 0
diagonal:  Solving for rhoE, Initial residual = 0, Final residual = 0, No Iterations 0
ExecutionTime = 14.39 s  ClockTime = 14 s
max(div(Bf)) = 0  average(div(Bf)) = 0


Courant Number mean: 0 max: 0.499512
deltaT = 4.87805e-05
Time = 0.0793171

RKStage:: 1
RKStage:: 2
RKStage:: 3
diagonal:  Solving for rho, Initial residual = 0, Final residual = 0, No Iterations 0
diagonal:  Solving for By, Initial residual = 0, Final residual = 0, No Iterations 0
diagonal:  Solving for Bz, Initial residual = 0, Final residual = 0, No Iterations 0
diagonal:  Solving for rhoUx, Initial residual = 0, Final residual = 0, No Iterations 0
diagonal:  Solving for rhoUy, Initial residual = 0, Final residual = 0, No Iterations 0
diagonal:  Solving for rhoUz, Initial residual = 0, Final residual = 0, No Iterations 0
diagonal:  Solving for rhoE, Initial residual = 0, Final residual = 0, No Iterations 0
ExecutionTime = 14.4 s  ClockTime = 14 s
max(div(Bf)) = 0  average(div(Bf)) = 0


Courant Number mean: 0 max: 0.499512
deltaT = 4.87805e-05
Time = 0.0793659

RKStage:: 1
RKStage:: 2
RKStage:: 3
diagonal:  Solving for rho, Initial residual = 0, Final residual = 0, No Iterations 0
diagonal:  Solving for By, Initial residual = 0, Final residual = 0, No Iterations 0
diagonal:  Solving for Bz, Initial residual = 0, Final residual = 0, No Iterations 0
diagonal:  Solving for rhoUx, Initial residual = 0, Final residual = 0, No Iterations 0
diagonal:  Solving for rhoUy, Initial residual = 0, Final residual = 0, No Iterations 0
diagonal:  Solving for rhoUz, Initial residual = 0, Final residual = 0, No Iterations 0
diagonal:  Solving for rhoE, Initial residual = 0, Final residual = 0, No Iterations 0
ExecutionTime = 14.41 s  ClockTime = 14 s
max(div(Bf)) = 0  average(div(Bf)) = 0


Courant Number mean: 0 max: 0.499512
deltaT = 4.87805e-05
Time = 0.0794146

RKStage:: 1
RKStage:: 2
RKStage:: 3
diagonal:  Solving for rho, Initial residual = 0, Final residual = 0, No Iterations 0
diagonal:  Solving for By, Initial residual = 0, Final residual = 0, No Iterations 0
diagonal:  Solving for Bz, Initial residual = 0, Final residual = 0, No Iterations 0
diagonal:  Solving for rhoUx, Initial residual = 0, Final residual = 0, No Iterations 0
diagonal:  Solving for rhoUy, Initial residual = 0, Final residual = 0, No Iterations 0
diagonal:  Solving for rhoUz, Initial residual = 0, Final residual = 0, No Iterations 0
diagonal:  Solving for rhoE, Initial residual = 0, Final residual = 0, No Iterations 0
ExecutionTime = 14.42 s  ClockTime = 14 s
max(div(Bf)) = 0  average(div(Bf)) = 0


Courant Number mean: 0 max: 0.499512
deltaT = 4.87805e-05
Time = 0.0794634

RKStage:: 1
RKStage:: 2
RKStage:: 3
diagonal:  Solving for rho, Initial residual = 0, Final residual = 0, No Iterations 0
diagonal:  Solving for By, Initial residual = 0, Final residual = 0, No Iterations 0
diagonal:  Solving for Bz, Initial residual = 0, Final residual = 0, No Iterations 0
diagonal:  Solving for rhoUx, Initial residual = 0, Final residual = 0, No Iterations 0
diagonal:  Solving for rhoUy, Initial residual = 0, Final residual = 0, No Iterations 0
diagonal:  Solving for rhoUz, Initial residual = 0, Final residual = 0, No Iterations 0
diagonal:  Solving for rhoE, Initial residual = 0, Final residual = 0, No Iterations 0
ExecutionTime = 14.43 s  ClockTime = 14 s
max(div(Bf)) = 0  average(div(Bf)) = 0


Courant Number mean: 0 max: 0.499512
deltaT = 4.87805e-05
Time = 0.0795122

RKStage:: 1
RKStage:: 2
RKStage:: 3
diagonal:  Solving for rho, Initial residual = 0, Final residual = 0, No Iterations 0
diagonal:  Solving for By, Initial residual = 0, Final residual = 0, No Iterations 0
diagonal:  Solving for Bz, Initial residual = 0, Final residual = 0, No Iterations 0
diagonal:  Solving for rhoUx, Initial residual = 0, Final residual = 0, No Iterations 0
diagonal:  Solving for rhoUy, Initial residual = 0, Final residual = 0, No Iterations 0
diagonal:  Solving for rhoUz, Initial residual = 0, Final residual = 0, No Iterations 0
diagonal:  Solving for rhoE, Initial residual = 0, Final residual = 0, No Iterations 0
ExecutionTime = 14.43 s  ClockTime = 14 s
max(div(Bf)) = 0  average(div(Bf)) = 0


Courant Number mean: 0 max: 0.499512
deltaT = 4.87805e-05
Time = 0.079561

RKStage:: 1
RKStage:: 2
RKStage:: 3
diagonal:  Solving for rho, Initial residual = 0, Final residual = 0, No Iterations 0
diagonal:  Solving for By, Initial residual = 0, Final residual = 0, No Iterations 0
diagonal:  Solving for Bz, Initial residual = 0, Final residual = 0, No Iterations 0
diagonal:  Solving for rhoUx, Initial residual = 0, Final residual = 0, No Iterations 0
diagonal:  Solving for rhoUy, Initial residual = 0, Final residual = 0, No Iterations 0
diagonal:  Solving for rhoUz, Initial residual = 0, Final residual = 0, No Iterations 0
diagonal:  Solving for rhoE, Initial residual = 0, Final residual = 0, No Iterations 0
ExecutionTime = 14.44 s  ClockTime = 14 s
max(div(Bf)) = 0  average(div(Bf)) = 0


Courant Number mean: 0 max: 0.499512
deltaT = 4.87805e-05
Time = 0.0796098

RKStage:: 1
RKStage:: 2
RKStage:: 3
diagonal:  Solving for rho, Initial residual = 0, Final residual = 0, No Iterations 0
diagonal:  Solving for By, Initial residual = 0, Final residual = 0, No Iterations 0
diagonal:  Solving for Bz, Initial residual = 0, Final residual = 0, No Iterations 0
diagonal:  Solving for rhoUx, Initial residual = 0, Final residual = 0, No Iterations 0
diagonal:  Solving for rhoUy, Initial residual = 0, Final residual = 0, No Iterations 0
diagonal:  Solving for rhoUz, Initial residual = 0, Final residual = 0, No Iterations 0
diagonal:  Solving for rhoE, Initial residual = 0, Final residual = 0, No Iterations 0
ExecutionTime = 14.45 s  ClockTime = 14 s
max(div(Bf)) = 0  average(div(Bf)) = 0


Courant Number mean: 0 max: 0.499512
deltaT = 4.87805e-05
Time = 0.0796585

RKStage:: 1
RKStage:: 2
RKStage:: 3
diagonal:  Solving for rho, Initial residual = 0, Final residual = 0, No Iterations 0
diagonal:  Solving for By, Initial residual = 0, Final residual = 0, No Iterations 0
diagonal:  Solving for Bz, Initial residual = 0, Final residual = 0, No Iterations 0
diagonal:  Solving for rhoUx, Initial residual = 0, Final residual = 0, No Iterations 0
diagonal:  Solving for rhoUy, Initial residual = 0, Final residual = 0, No Iterations 0
diagonal:  Solving for rhoUz, Initial residual = 0, Final residual = 0, No Iterations 0
diagonal:  Solving for rhoE, Initial residual = 0, Final residual = 0, No Iterations 0
ExecutionTime = 14.46 s  ClockTime = 14 s
max(div(Bf)) = 0  average(div(Bf)) = 0


Courant Number mean: 0 max: 0.499512
deltaT = 4.87805e-05
Time = 0.0797073

RKStage:: 1
RKStage:: 2
RKStage:: 3
diagonal:  Solving for rho, Initial residual = 0, Final residual = 0, No Iterations 0
diagonal:  Solving for By, Initial residual = 0, Final residual = 0, No Iterations 0
diagonal:  Solving for Bz, Initial residual = 0, Final residual = 0, No Iterations 0
diagonal:  Solving for rhoUx, Initial residual = 0, Final residual = 0, No Iterations 0
diagonal:  Solving for rhoUy, Initial residual = 0, Final residual = 0, No Iterations 0
diagonal:  Solving for rhoUz, Initial residual = 0, Final residual = 0, No Iterations 0
diagonal:  Solving for rhoE, Initial residual = 0, Final residual = 0, No Iterations 0
ExecutionTime = 14.47 s  ClockTime = 14 s
max(div(Bf)) = 0  average(div(Bf)) = 0


Courant Number mean: 0 max: 0.499512
deltaT = 4.87805e-05
Time = 0.0797561

RKStage:: 1
RKStage:: 2
RKStage:: 3
diagonal:  Solving for rho, Initial residual = 0, Final residual = 0, No Iterations 0
diagonal:  Solving for By, Initial residual = 0, Final residual = 0, No Iterations 0
diagonal:  Solving for Bz, Initial residual = 0, Final residual = 0, No Iterations 0
diagonal:  Solving for rhoUx, Initial residual = 0, Final residual = 0, No Iterations 0
diagonal:  Solving for rhoUy, Initial residual = 0, Final residual = 0, No Iterations 0
diagonal:  Solving for rhoUz, Initial residual = 0, Final residual = 0, No Iterations 0
diagonal:  Solving for rhoE, Initial residual = 0, Final residual = 0, No Iterations 0
ExecutionTime = 14.48 s  ClockTime = 14 s
max(div(Bf)) = 0  average(div(Bf)) = 0


Courant Number mean: 0 max: 0.499512
deltaT = 4.87805e-05
Time = 0.0798049

RKStage:: 1
RKStage:: 2
RKStage:: 3
diagonal:  Solving for rho, Initial residual = 0, Final residual = 0, No Iterations 0
diagonal:  Solving for By, Initial residual = 0, Final residual = 0, No Iterations 0
diagonal:  Solving for Bz, Initial residual = 0, Final residual = 0, No Iterations 0
diagonal:  Solving for rhoUx, Initial residual = 0, Final residual = 0, No Iterations 0
diagonal:  Solving for rhoUy, Initial residual = 0, Final residual = 0, No Iterations 0
diagonal:  Solving for rhoUz, Initial residual = 0, Final residual = 0, No Iterations 0
diagonal:  Solving for rhoE, Initial residual = 0, Final residual = 0, No Iterations 0
ExecutionTime = 14.49 s  ClockTime = 14 s
max(div(Bf)) = 0  average(div(Bf)) = 0


Courant Number mean: 0 max: 0.499512
deltaT = 4.87805e-05
Time = 0.0798537

RKStage:: 1
RKStage:: 2
RKStage:: 3
diagonal:  Solving for rho, Initial residual = 0, Final residual = 0, No Iterations 0
diagonal:  Solving for By, Initial residual = 0, Final residual = 0, No Iterations 0
diagonal:  Solving for Bz, Initial residual = 0, Final residual = 0, No Iterations 0
diagonal:  Solving for rhoUx, Initial residual = 0, Final residual = 0, No Iterations 0
diagonal:  Solving for rhoUy, Initial residual = 0, Final residual = 0, No Iterations 0
diagonal:  Solving for rhoUz, Initial residual = 0, Final residual = 0, No Iterations 0
diagonal:  Solving for rhoE, Initial residual = 0, Final residual = 0, No Iterations 0
ExecutionTime = 14.5 s  ClockTime = 14 s
max(div(Bf)) = 0  average(div(Bf)) = 0


Courant Number mean: 0 max: 0.499512
deltaT = 4.87805e-05
Time = 0.0799024

RKStage:: 1
RKStage:: 2
RKStage:: 3
diagonal:  Solving for rho, Initial residual = 0, Final residual = 0, No Iterations 0
diagonal:  Solving for By, Initial residual = 0, Final residual = 0, No Iterations 0
diagonal:  Solving for Bz, Initial residual = 0, Final residual = 0, No Iterations 0
diagonal:  Solving for rhoUx, Initial residual = 0, Final residual = 0, No Iterations 0
diagonal:  Solving for rhoUy, Initial residual = 0, Final residual = 0, No Iterations 0
diagonal:  Solving for rhoUz, Initial residual = 0, Final residual = 0, No Iterations 0
diagonal:  Solving for rhoE, Initial residual = 0, Final residual = 0, No Iterations 0
ExecutionTime = 14.5 s  ClockTime = 14 s
max(div(Bf)) = 0  average(div(Bf)) = 0


Courant Number mean: 0 max: 0.499512
deltaT = 4.87805e-05
Time = 0.0799512

RKStage:: 1
RKStage:: 2
RKStage:: 3
diagonal:  Solving for rho, Initial residual = 0, Final residual = 0, No Iterations 0
diagonal:  Solving for By, Initial residual = 0, Final residual = 0, No Iterations 0
diagonal:  Solving for Bz, Initial residual = 0, Final residual = 0, No Iterations 0
diagonal:  Solving for rhoUx, Initial residual = 0, Final residual = 0, No Iterations 0
diagonal:  Solving for rhoUy, Initial residual = 0, Final residual = 0, No Iterations 0
diagonal:  Solving for rhoUz, Initial residual = 0, Final residual = 0, No Iterations 0
diagonal:  Solving for rhoE, Initial residual = 0, Final residual = 0, No Iterations 0
ExecutionTime = 14.51 s  ClockTime = 14 s
max(div(Bf)) = 0  average(div(Bf)) = 0


Courant Number mean: 0 max: 0.499512
deltaT = 4.87805e-05
Time = 0.08

RKStage:: 1
RKStage:: 2
RKStage:: 3
diagonal:  Solving for rho, Initial residual = 0, Final residual = 0, No Iterations 0
diagonal:  Solving for By, Initial residual = 0, Final residual = 0, No Iterations 0
diagonal:  Solving for Bz, Initial residual = 0, Final residual = 0, No Iterations 0
diagonal:  Solving for rhoUx, Initial residual = 0, Final residual = 0, No Iterations 0
diagonal:  Solving for rhoUy, Initial residual = 0, Final residual = 0, No Iterations 0
diagonal:  Solving for rhoUz, Initial residual = 0, Final residual = 0, No Iterations 0
diagonal:  Solving for rhoE, Initial residual = 0, Final residual = 0, No Iterations 0
ExecutionTime = 14.53 s  ClockTime = 14 s
max(div(Bf)) = 0  average(div(Bf)) = 0


End

