/*---------------------------------------------------------------------------*\
| =========                 |                                                 |
| \\      /  F ield         | OpenFOAM: The Open Source CFD Toolbox           |
|  \\    /   O peration     | Version:  2.3.0                                 |
|   \\  /    A nd           | Web:      www.OpenFOAM.org                      |
|    \\/     M anipulation  |                                                 |
\*---------------------------------------------------------------------------*/
Build  : 2.3.0-f5222ca19ce6
Exec   : clusterMHDRk4
Date   : Feb 16 2015
Time   : 13:09:35
Host   : "xisto-UBIPC"
PID    : 13421
Case   : /home/xisto/OpenFOAM/xisto-2.3.0/run/ShockTUBE-Ryu/5a/CFL05-back/AUSMpw
nProcs : 1
sigFpe : Enabling floating point exception trapping (FOAM_SIGFPE).
fileModificationChecking : Monitoring run-time modified files using timeStampMaster
allowSystemOperations : Disallowing user-supplied system call operations

// * * * * * * * * * * * * * * * * * * * * * * * * * * * * * * * * * * * * * //
Create time

Create mesh for time = 0

fluxScheme is: AUSMpw-MHD
AUSMupPlus and Kurganov not working with MHD

Reading thermodynamicProperties

Reading transportProperties

Reading field p

Reading field T

Reading field U

Reading field B components

Courant Number mean: 0 max: 0

Starting time loop

Courant Number mean: 2.87929e-05 max: 8.04249e-05
deltaT = 1.2e-08
Time = 1.2e-08

alpha = 40

ExecutionTime = 0.01 s  ClockTime = 0 s
max(div(Bf)) = 0  average(div(Bf)) = 0


Courant Number mean: 3.45514e-05 max: 9.65098e-05
deltaT = 1.44e-08
Time = 2.64e-08

alpha = 40

ExecutionTime = 0.02 s  ClockTime = 0 s
max(div(Bf)) = 0  average(div(Bf)) = 0


Courant Number mean: 4.14617e-05 max: 0.000115812
deltaT = 1.72799e-08
Time = 4.36799e-08

alpha = 40

ExecutionTime = 0.02 s  ClockTime = 0 s
max(div(Bf)) = 0  average(div(Bf)) = 0


Courant Number mean: 4.97539e-05 max: 0.000138974
deltaT = 2.07359e-08
Time = 6.44158e-08

alpha = 40

ExecutionTime = 0.02 s  ClockTime = 0 s
max(div(Bf)) = 0  average(div(Bf)) = 0


Courant Number mean: 5.97046e-05 max: 0.000166768
deltaT = 2.48831e-08
Time = 8.92989e-08

alpha = 40

ExecutionTime = 0.02 s  ClockTime = 0 s
max(div(Bf)) = 0  average(div(Bf)) = 0


Courant Number mean: 7.16455e-05 max: 0.000200122
deltaT = 2.98597e-08
Time = 1.19159e-07

alpha = 40

ExecutionTime = 0.02 s  ClockTime = 0 s
max(div(Bf)) = 0  average(div(Bf)) = 0


Courant Number mean: 8.59745e-05 max: 0.000240146
deltaT = 3.58316e-08
Time = 1.5499e-07

alpha = 40

ExecutionTime = 0.02 s  ClockTime = 0 s
max(div(Bf)) = 0  average(div(Bf)) = 0


Courant Number mean: 0.000103169 max: 0.000288175
deltaT = 4.29979e-08
Time = 1.97988e-07

alpha = 40

ExecutionTime = 0.02 s  ClockTime = 0 s
max(div(Bf)) = 0  average(div(Bf)) = 0


Courant Number mean: 0.000123803 max: 0.00034581
deltaT = 5.15972e-08
Time = 2.49585e-07

alpha = 40

ExecutionTime = 0.02 s  ClockTime = 0 s
max(div(Bf)) = 0  average(div(Bf)) = 0


Courant Number mean: 0.000148563 max: 0.00041497
deltaT = 6.19164e-08
Time = 3.11502e-07

alpha = 40

ExecutionTime = 0.02 s  ClockTime = 0 s
max(div(Bf)) = 0  average(div(Bf)) = 0


Courant Number mean: 0.000178275 max: 0.000497962
deltaT = 7.42996e-08
Time = 3.85801e-07

alpha = 40

ExecutionTime = 0.02 s  ClockTime = 0 s
max(div(Bf)) = 0  average(div(Bf)) = 0


Courant Number mean: 0.00021393 max: 0.000597554
deltaT = 8.91589e-08
Time = 4.7496e-07

alpha = 40

ExecutionTime = 0.03 s  ClockTime = 0 s
max(div(Bf)) = 0  average(div(Bf)) = 0


Courant Number mean: 0.000256714 max: 0.000717059
deltaT = 1.0699e-07
Time = 5.8195e-07

alpha = 40

ExecutionTime = 0.03 s  ClockTime = 0 s
max(div(Bf)) = 0  average(div(Bf)) = 0


Courant Number mean: 0.000308056 max: 0.000860468
deltaT = 1.28387e-07
Time = 7.10337e-07

alpha = 40

ExecutionTime = 0.03 s  ClockTime = 0 s
max(div(Bf)) = 0  average(div(Bf)) = 0


Courant Number mean: 0.000369663 max: 0.00103255
deltaT = 1.54063e-07
Time = 8.644e-07

alpha = 40

ExecutionTime = 0.03 s  ClockTime = 0 s
max(div(Bf)) = 0  average(div(Bf)) = 0


Courant Number mean: 0.000443591 max: 0.00123905
deltaT = 1.84875e-07
Time = 1.04927e-06

alpha = 40

ExecutionTime = 0.03 s  ClockTime = 0 s
max(div(Bf)) = 0  average(div(Bf)) = 0


Courant Number mean: 0.000532307 max: 0.00148685
deltaT = 2.21849e-07
Time = 1.27112e-06

alpha = 40

ExecutionTime = 0.03 s  ClockTime = 0 s
max(div(Bf)) = 0  average(div(Bf)) = 0


Courant Number mean: 0.000638767 max: 0.00178422
deltaT = 2.66214e-07
Time = 1.53734e-06

alpha = 40

ExecutionTime = 0.03 s  ClockTime = 0 s
max(div(Bf)) = 0  average(div(Bf)) = 0


Courant Number mean: 0.000766506 max: 0.00214102
deltaT = 3.1945e-07
Time = 1.85679e-06

alpha = 40

ExecutionTime = 0.04 s  ClockTime = 0 s
max(div(Bf)) = 0  average(div(Bf)) = 0


Courant Number mean: 0.000919788 max: 0.00256917
deltaT = 3.83335e-07
Time = 2.24012e-06

alpha = 40

ExecutionTime = 0.04 s  ClockTime = 0 s
max(div(Bf)) = 0  average(div(Bf)) = 0


Courant Number mean: 0.00110373 max: 0.00308297
deltaT = 4.59984e-07
Time = 2.70011e-06

alpha = 40

ExecutionTime = 0.04 s  ClockTime = 0 s
max(div(Bf)) = 0  average(div(Bf)) = 0


Courant Number mean: 0.00132443 max: 0.00369942
deltaT = 5.51971e-07
Time = 3.25208e-06

alpha = 40

ExecutionTime = 0.04 s  ClockTime = 0 s
max(div(Bf)) = 0  average(div(Bf)) = 0


Courant Number mean: 0.00158928 max: 0.00443922
deltaT = 6.62343e-07
Time = 3.91442e-06

alpha = 40

ExecutionTime = 0.04 s  ClockTime = 0 s
max(div(Bf)) = 0  average(div(Bf)) = 0


Courant Number mean: 0.00190708 max: 0.00532689
deltaT = 7.94791e-07
Time = 4.70921e-06

alpha = 40

ExecutionTime = 0.04 s  ClockTime = 0 s
max(div(Bf)) = 0  average(div(Bf)) = 0


Courant Number mean: 0.00228843 max: 0.0063921
deltaT = 9.53658e-07
Time = 5.66287e-06

alpha = 40

ExecutionTime = 0.04 s  ClockTime = 0 s
max(div(Bf)) = 0  average(div(Bf)) = 0


Courant Number mean: 0.00274586 max: 0.00766979
deltaT = 1.1443e-06
Time = 6.80717e-06

alpha = 40

ExecutionTime = 0.04 s  ClockTime = 0 s
max(div(Bf)) = 0  average(div(Bf)) = 0


Courant Number mean: 0.00329478 max: 0.00920304
deltaT = 1.37307e-06
Time = 8.18024e-06

alpha = 40

ExecutionTime = 0.05 s  ClockTime = 0 s
max(div(Bf)) = 0  average(div(Bf)) = 0


Courant Number mean: 0.00395346 max: 0.0110429
deltaT = 1.64746e-06
Time = 9.8277e-06

alpha = 40

ExecutionTime = 0.05 s  ClockTime = 0 s
max(div(Bf)) = 0  average(div(Bf)) = 0


Courant Number mean: 0.0047435 max: 0.0132496
deltaT = 1.97669e-06
Time = 1.18044e-05

alpha = 40

ExecutionTime = 0.05 s  ClockTime = 0 s
max(div(Bf)) = 0  average(div(Bf)) = 0


Courant Number mean: 0.00569145 max: 0.0158975
deltaT = 2.37193e-06
Time = 1.41763e-05

alpha = 40

ExecutionTime = 0.05 s  ClockTime = 0 s
max(div(Bf)) = 0  average(div(Bf)) = 0


Courant Number mean: 0.00682947 max: 0.0190762
deltaT = 2.84577e-06
Time = 1.70221e-05

alpha = 40

ExecutionTime = 0.05 s  ClockTime = 0 s
max(div(Bf)) = 0  average(div(Bf)) = 0


Courant Number mean: 0.0081938 max: 0.0228871
deltaT = 3.41415e-06
Time = 2.04362e-05

alpha = 40

ExecutionTime = 0.05 s  ClockTime = 0 s
max(div(Bf)) = 0  average(div(Bf)) = 0


Courant Number mean: 0.00983032 max: 0.0274583
deltaT = 4.0967e-06
Time = 2.45329e-05

alpha = 40

ExecutionTime = 0.05 s  ClockTime = 0 s
max(div(Bf)) = 0  average(div(Bf)) = 0


Courant Number mean: 0.0117956 max: 0.0329477
deltaT = 4.91402e-06
Time = 2.9447e-05

alpha = 40

ExecutionTime = 0.06 s  ClockTime = 0 s
max(div(Bf)) = 0  average(div(Bf)) = 0


Courant Number mean: 0.0141489 max: 0.039521
deltaT = 5.89625e-06
Time = 3.53432e-05

alpha = 40

ExecutionTime = 0.06 s  ClockTime = 0 s
max(div(Bf)) = 0  average(div(Bf)) = 0


Courant Number mean: 0.016977 max: 0.0474205
deltaT = 7.07215e-06
Time = 4.24154e-05

alpha = 40

ExecutionTime = 0.06 s  ClockTime = 0 s
max(div(Bf)) = 0  average(div(Bf)) = 0


Courant Number mean: 0.0203627 max: 0.0568777
deltaT = 8.48176e-06
Time = 5.08971e-05

alpha = 40

ExecutionTime = 0.06 s  ClockTime = 0 s
max(div(Bf)) = 0  average(div(Bf)) = 0


Courant Number mean: 0.0244214 max: 0.0682145
deltaT = 1.01729e-05
Time = 6.107e-05

alpha = 40

ExecutionTime = 0.06 s  ClockTime = 0 s
max(div(Bf)) = 0  average(div(Bf)) = 0


Courant Number mean: 0.0292907 max: 0.0818155
deltaT = 1.2195e-05
Time = 7.3265e-05

alpha = 40

ExecutionTime = 0.06 s  ClockTime = 0 s
max(div(Bf)) = 0  average(div(Bf)) = 0


Courant Number mean: 0.0351129 max: 0.0980782
deltaT = 1.46196e-05
Time = 8.78847e-05

alpha = 40

ExecutionTime = 0.06 s  ClockTime = 0 s
max(div(Bf)) = 0  average(div(Bf)) = 0


Courant Number mean: 0.0420941 max: 0.117578
deltaT = 1.75126e-05
Time = 0.000105397

alpha = 40

ExecutionTime = 0.06 s  ClockTime = 0 s
max(div(Bf)) = 0  average(div(Bf)) = 0


Courant Number mean: 0.0504237 max: 0.140845
deltaT = 2.10076e-05
Time = 0.000126405

alpha = 40

ExecutionTime = 0.07 s  ClockTime = 0 s
max(div(Bf)) = 0  average(div(Bf)) = 0


Courant Number mean: 0.0604871 max: 0.168954
deltaT = 2.51877e-05
Time = 0.000151593

alpha = 40

ExecutionTime = 0.07 s  ClockTime = 0 s
max(div(Bf)) = 0  average(div(Bf)) = 0


Courant Number mean: 0.0725227 max: 0.202572
deltaT = 3.02098e-05
Time = 0.000181802

alpha = 40

ExecutionTime = 0.07 s  ClockTime = 0 s
max(div(Bf)) = 0  average(div(Bf)) = 0


Courant Number mean: 0.0869828 max: 0.242962
deltaT = 3.62295e-05
Time = 0.000218032

alpha = 40

ExecutionTime = 0.07 s  ClockTime = 0 s
max(div(Bf)) = 0  average(div(Bf)) = 0


Courant Number mean: 0.104315 max: 0.291376
deltaT = 4.23462e-05
Time = 0.000260378

alpha = 40

ExecutionTime = 0.07 s  ClockTime = 0 s
max(div(Bf)) = 0  average(div(Bf)) = 0


Courant Number mean: 0.121927 max: 0.340569
deltaT = 4.84558e-05
Time = 0.000308834

alpha = 40

ExecutionTime = 0.07 s  ClockTime = 0 s
max(div(Bf)) = 0  average(div(Bf)) = 0


Courant Number mean: 0.139518 max: 0.389706
deltaT = 5.44448e-05
Time = 0.000363279

alpha = 40

ExecutionTime = 0.07 s  ClockTime = 0 s
max(div(Bf)) = 0  average(div(Bf)) = 0


Courant Number mean: 0.156762 max: 0.437871
deltaT = 6.06083e-05
Time = 0.000423887

alpha = 40

ExecutionTime = 0.08 s  ClockTime = 0 s
max(div(Bf)) = 0  average(div(Bf)) = 0


Courant Number mean: 0.174509 max: 0.487442
deltaT = 6.17814e-05
Time = 0.000485668

alpha = 40

ExecutionTime = 0.08 s  ClockTime = 0 s
max(div(Bf)) = 0  average(div(Bf)) = 0


Courant Number mean: 0.177886 max: 0.496876
deltaT = 6.17814e-05
Time = 0.00054745

alpha = 40

ExecutionTime = 0.08 s  ClockTime = 0 s
max(div(Bf)) = 0  average(div(Bf)) = 0


Courant Number mean: 0.177886 max: 0.496876
deltaT = 6.17814e-05
Time = 0.000609231

alpha = 40

ExecutionTime = 0.08 s  ClockTime = 0 s
max(div(Bf)) = 0  average(div(Bf)) = 0


Courant Number mean: 0.177886 max: 0.496876
deltaT = 6.17814e-05
Time = 0.000671013

alpha = 40

ExecutionTime = 0.08 s  ClockTime = 0 s
max(div(Bf)) = 0  average(div(Bf)) = 0


Courant Number mean: 0.177886 max: 0.496876
deltaT = 6.17814e-05
Time = 0.000732794

alpha = 40

ExecutionTime = 0.08 s  ClockTime = 0 s
max(div(Bf)) = 0  average(div(Bf)) = 0


Courant Number mean: 0.177886 max: 0.496876
deltaT = 6.17814e-05
Time = 0.000794575

alpha = 40

ExecutionTime = 0.08 s  ClockTime = 0 s
max(div(Bf)) = 0  average(div(Bf)) = 0


Courant Number mean: 0.177886 max: 0.496876
deltaT = 6.17814e-05
Time = 0.000856357

alpha = 40

ExecutionTime = 0.09 s  ClockTime = 0 s
max(div(Bf)) = 0  average(div(Bf)) = 0


Courant Number mean: 0.177886 max: 0.496876
deltaT = 6.17814e-05
Time = 0.000918138

alpha = 40

ExecutionTime = 0.09 s  ClockTime = 0 s
max(div(Bf)) = 0  average(div(Bf)) = 0


Courant Number mean: 0.177886 max: 0.496876
deltaT = 6.17814e-05
Time = 0.000979919

alpha = 40

ExecutionTime = 0.09 s  ClockTime = 0 s
max(div(Bf)) = 0  average(div(Bf)) = 0


Courant Number mean: 0.177886 max: 0.496876
deltaT = 6.17814e-05
Time = 0.0010417

alpha = 40

ExecutionTime = 0.09 s  ClockTime = 0 s
max(div(Bf)) = 0  average(div(Bf)) = 0


Courant Number mean: 0.177886 max: 0.496876
deltaT = 6.17814e-05
Time = 0.00110348

alpha = 40

ExecutionTime = 0.09 s  ClockTime = 0 s
max(div(Bf)) = 0  average(div(Bf)) = 0


Courant Number mean: 0.177886 max: 0.496876
deltaT = 6.17814e-05
Time = 0.00116526

alpha = 40

ExecutionTime = 0.09 s  ClockTime = 0 s
max(div(Bf)) = 0  average(div(Bf)) = 0


Courant Number mean: 0.177886 max: 0.496876
deltaT = 6.17814e-05
Time = 0.00122704

alpha = 40

ExecutionTime = 0.09 s  ClockTime = 0 s
max(div(Bf)) = 0  average(div(Bf)) = 0


Courant Number mean: 0.177886 max: 0.496876
deltaT = 6.17814e-05
Time = 0.00128883

alpha = 40

ExecutionTime = 0.09 s  ClockTime = 0 s
max(div(Bf)) = 0  average(div(Bf)) = 0


Courant Number mean: 0.177886 max: 0.496876
deltaT = 6.17814e-05
Time = 0.00135061

alpha = 40

ExecutionTime = 0.1 s  ClockTime = 0 s
max(div(Bf)) = 0  average(div(Bf)) = 0


Courant Number mean: 0.177886 max: 0.496876
deltaT = 6.17814e-05
Time = 0.00141239

alpha = 40

ExecutionTime = 0.1 s  ClockTime = 0 s
max(div(Bf)) = 0  average(div(Bf)) = 0


Courant Number mean: 0.177886 max: 0.496876
deltaT = 6.17814e-05
Time = 0.00147417

alpha = 40

ExecutionTime = 0.1 s  ClockTime = 0 s
max(div(Bf)) = 0  average(div(Bf)) = 0


Courant Number mean: 0.177886 max: 0.496876
deltaT = 6.17814e-05
Time = 0.00153595

alpha = 40

ExecutionTime = 0.1 s  ClockTime = 0 s
max(div(Bf)) = 0  average(div(Bf)) = 0


Courant Number mean: 0.177886 max: 0.496876
deltaT = 6.17814e-05
Time = 0.00159773

alpha = 40

ExecutionTime = 0.1 s  ClockTime = 0 s
max(div(Bf)) = 0  average(div(Bf)) = 0


Courant Number mean: 0.177886 max: 0.496876
deltaT = 6.17814e-05
Time = 0.00165951

alpha = 40

ExecutionTime = 0.1 s  ClockTime = 0 s
max(div(Bf)) = 0  average(div(Bf)) = 0


Courant Number mean: 0.177886 max: 0.496876
deltaT = 6.17814e-05
Time = 0.0017213

alpha = 40

ExecutionTime = 0.1 s  ClockTime = 0 s
max(div(Bf)) = 0  average(div(Bf)) = 0


Courant Number mean: 0.177886 max: 0.496876
deltaT = 6.17814e-05
Time = 0.00178308

alpha = 40

ExecutionTime = 0.11 s  ClockTime = 0 s
max(div(Bf)) = 0  average(div(Bf)) = 0


Courant Number mean: 0.177886 max: 0.496876
deltaT = 6.17814e-05
Time = 0.00184486

alpha = 40

ExecutionTime = 0.11 s  ClockTime = 0 s
max(div(Bf)) = 0  average(div(Bf)) = 0


Courant Number mean: 0.177886 max: 0.496876
deltaT = 6.17814e-05
Time = 0.00190664

alpha = 40

ExecutionTime = 0.11 s  ClockTime = 0 s
max(div(Bf)) = 0  average(div(Bf)) = 0


Courant Number mean: 0.177886 max: 0.496876
deltaT = 6.17814e-05
Time = 0.00196842

alpha = 40

ExecutionTime = 0.11 s  ClockTime = 0 s
max(div(Bf)) = 0  average(div(Bf)) = 0


Courant Number mean: 0.177886 max: 0.496876
deltaT = 6.17814e-05
Time = 0.0020302

alpha = 40

ExecutionTime = 0.11 s  ClockTime = 0 s
max(div(Bf)) = 0  average(div(Bf)) = 0


Courant Number mean: 0.177886 max: 0.496876
deltaT = 6.17814e-05
Time = 0.00209198

alpha = 40

ExecutionTime = 0.11 s  ClockTime = 0 s
max(div(Bf)) = 0  average(div(Bf)) = 0


Courant Number mean: 0.177886 max: 0.496876
deltaT = 6.17814e-05
Time = 0.00215377

alpha = 40

ExecutionTime = 0.11 s  ClockTime = 0 s
max(div(Bf)) = 0  average(div(Bf)) = 0


Courant Number mean: 0.177886 max: 0.496876
deltaT = 6.17814e-05
Time = 0.00221555

alpha = 40

ExecutionTime = 0.11 s  ClockTime = 0 s
max(div(Bf)) = 0  average(div(Bf)) = 0


Courant Number mean: 0.177886 max: 0.496876
deltaT = 6.17814e-05
Time = 0.00227733

alpha = 40

ExecutionTime = 0.12 s  ClockTime = 0 s
max(div(Bf)) = 0  average(div(Bf)) = 0


Courant Number mean: 0.177886 max: 0.496876
deltaT = 6.17814e-05
Time = 0.00233911

alpha = 40

ExecutionTime = 0.12 s  ClockTime = 0 s
max(div(Bf)) = 0  average(div(Bf)) = 0


Courant Number mean: 0.177886 max: 0.496876
deltaT = 6.17814e-05
Time = 0.00240089

alpha = 40

ExecutionTime = 0.12 s  ClockTime = 0 s
max(div(Bf)) = 0  average(div(Bf)) = 0


Courant Number mean: 0.177886 max: 0.496876
deltaT = 6.17814e-05
Time = 0.00246267

alpha = 40

ExecutionTime = 0.12 s  ClockTime = 0 s
max(div(Bf)) = 0  average(div(Bf)) = 0


Courant Number mean: 0.177886 max: 0.496876
deltaT = 6.17814e-05
Time = 0.00252445

alpha = 40

ExecutionTime = 0.12 s  ClockTime = 0 s
max(div(Bf)) = 0  average(div(Bf)) = 0


Courant Number mean: 0.177886 max: 0.496876
deltaT = 6.17814e-05
Time = 0.00258624

alpha = 40

ExecutionTime = 0.12 s  ClockTime = 0 s
max(div(Bf)) = 0  average(div(Bf)) = 0


Courant Number mean: 0.177886 max: 0.496876
deltaT = 6.17814e-05
Time = 0.00264802

alpha = 40

ExecutionTime = 0.12 s  ClockTime = 0 s
max(div(Bf)) = 0  average(div(Bf)) = 0


Courant Number mean: 0.177886 max: 0.496876
deltaT = 6.17814e-05
Time = 0.0027098

alpha = 40

ExecutionTime = 0.13 s  ClockTime = 0 s
max(div(Bf)) = 0  average(div(Bf)) = 0


Courant Number mean: 0.177886 max: 0.496876
deltaT = 6.17814e-05
Time = 0.00277158

alpha = 40

ExecutionTime = 0.13 s  ClockTime = 0 s
max(div(Bf)) = 0  average(div(Bf)) = 0


Courant Number mean: 0.177886 max: 0.496876
deltaT = 6.17814e-05
Time = 0.00283336

alpha = 40

ExecutionTime = 0.13 s  ClockTime = 0 s
max(div(Bf)) = 0  average(div(Bf)) = 0


Courant Number mean: 0.177886 max: 0.496876
deltaT = 6.17814e-05
Time = 0.00289514

alpha = 40

ExecutionTime = 0.13 s  ClockTime = 0 s
max(div(Bf)) = 0  average(div(Bf)) = 0


Courant Number mean: 0.177886 max: 0.496876
deltaT = 6.17814e-05
Time = 0.00295692

alpha = 40

ExecutionTime = 0.13 s  ClockTime = 0 s
max(div(Bf)) = 0  average(div(Bf)) = 0


Courant Number mean: 0.177886 max: 0.496876
deltaT = 6.17814e-05
Time = 0.0030187

alpha = 40

ExecutionTime = 0.13 s  ClockTime = 0 s
max(div(Bf)) = 0  average(div(Bf)) = 0


Courant Number mean: 0.177886 max: 0.496876
deltaT = 6.17814e-05
Time = 0.00308049

alpha = 40

ExecutionTime = 0.13 s  ClockTime = 0 s
max(div(Bf)) = 0  average(div(Bf)) = 0


Courant Number mean: 0.177886 max: 0.496876
deltaT = 6.17814e-05
Time = 0.00314227

alpha = 40

ExecutionTime = 0.13 s  ClockTime = 0 s
max(div(Bf)) = 0  average(div(Bf)) = 0


Courant Number mean: 0.177886 max: 0.496876
deltaT = 6.17814e-05
Time = 0.00320405

alpha = 40

ExecutionTime = 0.14 s  ClockTime = 0 s
max(div(Bf)) = 0  average(div(Bf)) = 0


Courant Number mean: 0.177886 max: 0.496876
deltaT = 6.17814e-05
Time = 0.00326583

alpha = 40

ExecutionTime = 0.14 s  ClockTime = 0 s
max(div(Bf)) = 0  average(div(Bf)) = 0


Courant Number mean: 0.177886 max: 0.496876
deltaT = 6.17814e-05
Time = 0.00332761

alpha = 40

ExecutionTime = 0.14 s  ClockTime = 0 s
max(div(Bf)) = 0  average(div(Bf)) = 0


Courant Number mean: 0.177886 max: 0.496876
deltaT = 6.17814e-05
Time = 0.00338939

alpha = 40

ExecutionTime = 0.15 s  ClockTime = 0 s
max(div(Bf)) = 0  average(div(Bf)) = 0


Courant Number mean: 0.177886 max: 0.496876
deltaT = 6.17814e-05
Time = 0.00345117

alpha = 40

ExecutionTime = 0.15 s  ClockTime = 0 s
max(div(Bf)) = 0  average(div(Bf)) = 0


Courant Number mean: 0.177886 max: 0.496876
deltaT = 6.17814e-05
Time = 0.00351296

alpha = 40

ExecutionTime = 0.15 s  ClockTime = 0 s
max(div(Bf)) = 0  average(div(Bf)) = 0


Courant Number mean: 0.177886 max: 0.496876
deltaT = 6.17814e-05
Time = 0.00357474

alpha = 40

ExecutionTime = 0.15 s  ClockTime = 0 s
max(div(Bf)) = 0  average(div(Bf)) = 0


Courant Number mean: 0.177886 max: 0.496876
deltaT = 6.17814e-05
Time = 0.00363652

alpha = 40

ExecutionTime = 0.15 s  ClockTime = 0 s
max(div(Bf)) = 0  average(div(Bf)) = 0


Courant Number mean: 0.177886 max: 0.496876
deltaT = 6.17814e-05
Time = 0.0036983

alpha = 40

ExecutionTime = 0.15 s  ClockTime = 0 s
max(div(Bf)) = 0  average(div(Bf)) = 0


Courant Number mean: 0.177886 max: 0.496876
deltaT = 6.17814e-05
Time = 0.00376008

alpha = 40

ExecutionTime = 0.15 s  ClockTime = 0 s
max(div(Bf)) = 0  average(div(Bf)) = 0


Courant Number mean: 0.177886 max: 0.496876
deltaT = 6.17814e-05
Time = 0.00382186

alpha = 40

ExecutionTime = 0.16 s  ClockTime = 0 s
max(div(Bf)) = 0  average(div(Bf)) = 0


Courant Number mean: 0.177886 max: 0.496876
deltaT = 6.17814e-05
Time = 0.00388364

alpha = 40

ExecutionTime = 0.16 s  ClockTime = 1 s
max(div(Bf)) = 0  average(div(Bf)) = 0


Courant Number mean: 0.177886 max: 0.496876
deltaT = 6.17814e-05
Time = 0.00394543

alpha = 40

ExecutionTime = 0.16 s  ClockTime = 1 s
max(div(Bf)) = 0  average(div(Bf)) = 0


Courant Number mean: 0.177886 max: 0.496876
deltaT = 6.17814e-05
Time = 0.00400721

alpha = 40

ExecutionTime = 0.16 s  ClockTime = 1 s
max(div(Bf)) = 0  average(div(Bf)) = 0


Courant Number mean: 0.177886 max: 0.496876
deltaT = 6.17814e-05
Time = 0.00406899

alpha = 40

ExecutionTime = 0.16 s  ClockTime = 1 s
max(div(Bf)) = 0  average(div(Bf)) = 0


Courant Number mean: 0.177886 max: 0.496876
deltaT = 6.17814e-05
Time = 0.00413077

alpha = 40

ExecutionTime = 0.16 s  ClockTime = 1 s
max(div(Bf)) = 0  average(div(Bf)) = 0


Courant Number mean: 0.177886 max: 0.496876
deltaT = 6.17814e-05
Time = 0.00419255

alpha = 40

ExecutionTime = 0.16 s  ClockTime = 1 s
max(div(Bf)) = 0  average(div(Bf)) = 0


Courant Number mean: 0.177886 max: 0.496876
deltaT = 6.17814e-05
Time = 0.00425433

alpha = 40

ExecutionTime = 0.17 s  ClockTime = 1 s
max(div(Bf)) = 0  average(div(Bf)) = 0


Courant Number mean: 0.177886 max: 0.496876
deltaT = 6.17814e-05
Time = 0.00431611

alpha = 40

ExecutionTime = 0.17 s  ClockTime = 1 s
max(div(Bf)) = 0  average(div(Bf)) = 0


Courant Number mean: 0.177886 max: 0.496876
deltaT = 6.17814e-05
Time = 0.00437789

alpha = 40

ExecutionTime = 0.17 s  ClockTime = 1 s
max(div(Bf)) = 0  average(div(Bf)) = 0


Courant Number mean: 0.177886 max: 0.496876
deltaT = 6.17814e-05
Time = 0.00443968

alpha = 40

ExecutionTime = 0.17 s  ClockTime = 1 s
max(div(Bf)) = 0  average(div(Bf)) = 0


Courant Number mean: 0.177886 max: 0.496876
deltaT = 6.17814e-05
Time = 0.00450146

alpha = 40

ExecutionTime = 0.17 s  ClockTime = 1 s
max(div(Bf)) = 0  average(div(Bf)) = 0


Courant Number mean: 0.177886 max: 0.496876
deltaT = 6.17814e-05
Time = 0.00456324

alpha = 40

ExecutionTime = 0.17 s  ClockTime = 1 s
max(div(Bf)) = 0  average(div(Bf)) = 0


Courant Number mean: 0.177886 max: 0.496876
deltaT = 6.17814e-05
Time = 0.00462502

alpha = 40

ExecutionTime = 0.17 s  ClockTime = 1 s
max(div(Bf)) = 0  average(div(Bf)) = 0


Courant Number mean: 0.177886 max: 0.496876
deltaT = 6.17814e-05
Time = 0.0046868

alpha = 40

ExecutionTime = 0.17 s  ClockTime = 1 s
max(div(Bf)) = 0  average(div(Bf)) = 0


Courant Number mean: 0.177886 max: 0.496876
deltaT = 6.17814e-05
Time = 0.00474858

alpha = 40

ExecutionTime = 0.18 s  ClockTime = 1 s
max(div(Bf)) = 0  average(div(Bf)) = 0


Courant Number mean: 0.177886 max: 0.496876
deltaT = 6.17814e-05
Time = 0.00481036

alpha = 40

ExecutionTime = 0.18 s  ClockTime = 1 s
max(div(Bf)) = 0  average(div(Bf)) = 0


Courant Number mean: 0.177886 max: 0.496876
deltaT = 6.17814e-05
Time = 0.00487215

alpha = 40

ExecutionTime = 0.18 s  ClockTime = 1 s
max(div(Bf)) = 0  average(div(Bf)) = 0


Courant Number mean: 0.177886 max: 0.496876
deltaT = 6.17814e-05
Time = 0.00493393

alpha = 40

ExecutionTime = 0.18 s  ClockTime = 1 s
max(div(Bf)) = 0  average(div(Bf)) = 0


Courant Number mean: 0.177886 max: 0.496876
deltaT = 6.17814e-05
Time = 0.00499571

alpha = 40

ExecutionTime = 0.18 s  ClockTime = 1 s
max(div(Bf)) = 0  average(div(Bf)) = 0


Courant Number mean: 0.177886 max: 0.496876
deltaT = 6.17814e-05
Time = 0.00505749

alpha = 40

ExecutionTime = 0.18 s  ClockTime = 1 s
max(div(Bf)) = 0  average(div(Bf)) = 0


Courant Number mean: 0.177886 max: 0.496876
deltaT = 6.17814e-05
Time = 0.00511927

alpha = 40

ExecutionTime = 0.18 s  ClockTime = 1 s
max(div(Bf)) = 0  average(div(Bf)) = 0


Courant Number mean: 0.177886 max: 0.496876
deltaT = 6.17814e-05
Time = 0.00518105

alpha = 40

ExecutionTime = 0.18 s  ClockTime = 1 s
max(div(Bf)) = 0  average(div(Bf)) = 0


Courant Number mean: 0.177886 max: 0.496876
deltaT = 6.17814e-05
Time = 0.00524283

alpha = 40

ExecutionTime = 0.18 s  ClockTime = 1 s
max(div(Bf)) = 0  average(div(Bf)) = 0


Courant Number mean: 0.177886 max: 0.496876
deltaT = 6.17814e-05
Time = 0.00530462

alpha = 40

ExecutionTime = 0.18 s  ClockTime = 1 s
max(div(Bf)) = 0  average(div(Bf)) = 0


Courant Number mean: 0.177886 max: 0.496876
deltaT = 6.17814e-05
Time = 0.0053664

alpha = 40

ExecutionTime = 0.19 s  ClockTime = 1 s
max(div(Bf)) = 0  average(div(Bf)) = 0


Courant Number mean: 0.177886 max: 0.496876
deltaT = 6.17814e-05
Time = 0.00542818

alpha = 40

ExecutionTime = 0.19 s  ClockTime = 1 s
max(div(Bf)) = 0  average(div(Bf)) = 0


Courant Number mean: 0.177886 max: 0.496876
deltaT = 6.17814e-05
Time = 0.00548996

alpha = 40

ExecutionTime = 0.19 s  ClockTime = 1 s
max(div(Bf)) = 0  average(div(Bf)) = 0


Courant Number mean: 0.177886 max: 0.496876
deltaT = 6.17814e-05
Time = 0.00555174

alpha = 40

ExecutionTime = 0.19 s  ClockTime = 1 s
max(div(Bf)) = 0  average(div(Bf)) = 0


Courant Number mean: 0.177886 max: 0.496876
deltaT = 6.17814e-05
Time = 0.00561352

alpha = 40

ExecutionTime = 0.19 s  ClockTime = 1 s
max(div(Bf)) = 0  average(div(Bf)) = 0


Courant Number mean: 0.177886 max: 0.496876
deltaT = 6.17814e-05
Time = 0.0056753

alpha = 40

ExecutionTime = 0.19 s  ClockTime = 1 s
max(div(Bf)) = 0  average(div(Bf)) = 0


Courant Number mean: 0.177886 max: 0.496876
deltaT = 6.17814e-05
Time = 0.00573709

alpha = 40

ExecutionTime = 0.19 s  ClockTime = 1 s
max(div(Bf)) = 0  average(div(Bf)) = 0


Courant Number mean: 0.177886 max: 0.496876
deltaT = 6.17814e-05
Time = 0.00579887

alpha = 40

ExecutionTime = 0.19 s  ClockTime = 1 s
max(div(Bf)) = 0  average(div(Bf)) = 0


Courant Number mean: 0.177886 max: 0.496876
deltaT = 6.17814e-05
Time = 0.00586065

alpha = 40

ExecutionTime = 0.2 s  ClockTime = 1 s
max(div(Bf)) = 0  average(div(Bf)) = 0


Courant Number mean: 0.177886 max: 0.496876
deltaT = 6.17814e-05
Time = 0.00592243

alpha = 40

ExecutionTime = 0.2 s  ClockTime = 1 s
max(div(Bf)) = 0  average(div(Bf)) = 0


Courant Number mean: 0.177886 max: 0.496876
deltaT = 6.17814e-05
Time = 0.00598421

alpha = 40

ExecutionTime = 0.2 s  ClockTime = 1 s
max(div(Bf)) = 0  average(div(Bf)) = 0


Courant Number mean: 0.177886 max: 0.496876
deltaT = 6.17814e-05
Time = 0.00604599

alpha = 40

ExecutionTime = 0.2 s  ClockTime = 1 s
max(div(Bf)) = 0  average(div(Bf)) = 0


Courant Number mean: 0.177886 max: 0.496876
deltaT = 6.17814e-05
Time = 0.00610777

alpha = 40

ExecutionTime = 0.2 s  ClockTime = 1 s
max(div(Bf)) = 0  average(div(Bf)) = 0


Courant Number mean: 0.177886 max: 0.496876
deltaT = 6.17814e-05
Time = 0.00616955

alpha = 40

ExecutionTime = 0.2 s  ClockTime = 1 s
max(div(Bf)) = 0  average(div(Bf)) = 0


Courant Number mean: 0.177886 max: 0.496876
deltaT = 6.17814e-05
Time = 0.00623134

alpha = 40

ExecutionTime = 0.2 s  ClockTime = 1 s
max(div(Bf)) = 0  average(div(Bf)) = 0


Courant Number mean: 0.177886 max: 0.496876
deltaT = 6.17814e-05
Time = 0.00629312

alpha = 40

ExecutionTime = 0.21 s  ClockTime = 1 s
max(div(Bf)) = 0  average(div(Bf)) = 0


Courant Number mean: 0.177886 max: 0.496876
deltaT = 6.17814e-05
Time = 0.0063549

alpha = 40

ExecutionTime = 0.21 s  ClockTime = 1 s
max(div(Bf)) = 0  average(div(Bf)) = 0


Courant Number mean: 0.177886 max: 0.496876
deltaT = 6.17814e-05
Time = 0.00641668

alpha = 40

ExecutionTime = 0.21 s  ClockTime = 1 s
max(div(Bf)) = 0  average(div(Bf)) = 0


Courant Number mean: 0.177886 max: 0.496876
deltaT = 6.17814e-05
Time = 0.00647846

alpha = 40

ExecutionTime = 0.21 s  ClockTime = 1 s
max(div(Bf)) = 0  average(div(Bf)) = 0


Courant Number mean: 0.177886 max: 0.496876
deltaT = 6.17814e-05
Time = 0.00654024

alpha = 40

ExecutionTime = 0.21 s  ClockTime = 1 s
max(div(Bf)) = 0  average(div(Bf)) = 0


Courant Number mean: 0.177886 max: 0.496876
deltaT = 6.17814e-05
Time = 0.00660202

alpha = 40

ExecutionTime = 0.21 s  ClockTime = 1 s
max(div(Bf)) = 0  average(div(Bf)) = 0


Courant Number mean: 0.177886 max: 0.496876
deltaT = 6.17814e-05
Time = 0.00666381

alpha = 40

ExecutionTime = 0.21 s  ClockTime = 1 s
max(div(Bf)) = 0  average(div(Bf)) = 0


Courant Number mean: 0.177886 max: 0.496876
deltaT = 6.17814e-05
Time = 0.00672559

alpha = 40

ExecutionTime = 0.22 s  ClockTime = 1 s
max(div(Bf)) = 0  average(div(Bf)) = 0


Courant Number mean: 0.177886 max: 0.496876
deltaT = 6.17814e-05
Time = 0.00678737

alpha = 40

ExecutionTime = 0.22 s  ClockTime = 1 s
max(div(Bf)) = 0  average(div(Bf)) = 0


Courant Number mean: 0.177886 max: 0.496876
deltaT = 6.17814e-05
Time = 0.00684915

alpha = 40

ExecutionTime = 0.22 s  ClockTime = 1 s
max(div(Bf)) = 0  average(div(Bf)) = 0


Courant Number mean: 0.177886 max: 0.496876
deltaT = 6.17814e-05
Time = 0.00691093

alpha = 40

ExecutionTime = 0.22 s  ClockTime = 1 s
max(div(Bf)) = 0  average(div(Bf)) = 0


Courant Number mean: 0.177886 max: 0.496876
deltaT = 6.17814e-05
Time = 0.00697271

alpha = 40

ExecutionTime = 0.23 s  ClockTime = 1 s
max(div(Bf)) = 0  average(div(Bf)) = 0


Courant Number mean: 0.177886 max: 0.496876
deltaT = 6.17814e-05
Time = 0.00703449

alpha = 40

ExecutionTime = 0.23 s  ClockTime = 1 s
max(div(Bf)) = 0  average(div(Bf)) = 0


Courant Number mean: 0.177886 max: 0.496876
deltaT = 6.17814e-05
Time = 0.00709628

alpha = 40

ExecutionTime = 0.23 s  ClockTime = 1 s
max(div(Bf)) = 0  average(div(Bf)) = 0


Courant Number mean: 0.177886 max: 0.496876
deltaT = 6.17814e-05
Time = 0.00715806

alpha = 40

ExecutionTime = 0.23 s  ClockTime = 1 s
max(div(Bf)) = 0  average(div(Bf)) = 0


Courant Number mean: 0.177886 max: 0.496876
deltaT = 6.17814e-05
Time = 0.00721984

alpha = 40

ExecutionTime = 0.23 s  ClockTime = 1 s
max(div(Bf)) = 0  average(div(Bf)) = 0


Courant Number mean: 0.177886 max: 0.496876
deltaT = 6.17814e-05
Time = 0.00728162

alpha = 40

ExecutionTime = 0.23 s  ClockTime = 1 s
max(div(Bf)) = 0  average(div(Bf)) = 0


Courant Number mean: 0.177886 max: 0.496876
deltaT = 6.17814e-05
Time = 0.0073434

alpha = 40

ExecutionTime = 0.23 s  ClockTime = 1 s
max(div(Bf)) = 0  average(div(Bf)) = 0


Courant Number mean: 0.177886 max: 0.496876
deltaT = 6.17814e-05
Time = 0.00740518

alpha = 40

ExecutionTime = 0.24 s  ClockTime = 1 s
max(div(Bf)) = 0  average(div(Bf)) = 0


Courant Number mean: 0.177886 max: 0.496876
deltaT = 6.17814e-05
Time = 0.00746696

alpha = 40

ExecutionTime = 0.24 s  ClockTime = 1 s
max(div(Bf)) = 0  average(div(Bf)) = 0


Courant Number mean: 0.177886 max: 0.496876
deltaT = 6.17814e-05
Time = 0.00752875

alpha = 40

ExecutionTime = 0.24 s  ClockTime = 1 s
max(div(Bf)) = 0  average(div(Bf)) = 0


Courant Number mean: 0.177886 max: 0.496876
deltaT = 6.17814e-05
Time = 0.00759053

alpha = 40

ExecutionTime = 0.24 s  ClockTime = 1 s
max(div(Bf)) = 0  average(div(Bf)) = 0


Courant Number mean: 0.177886 max: 0.496876
deltaT = 6.17814e-05
Time = 0.00765231

alpha = 40

ExecutionTime = 0.24 s  ClockTime = 1 s
max(div(Bf)) = 0  average(div(Bf)) = 0


Courant Number mean: 0.177886 max: 0.496876
deltaT = 6.17814e-05
Time = 0.00771409

alpha = 40

ExecutionTime = 0.24 s  ClockTime = 1 s
max(div(Bf)) = 0  average(div(Bf)) = 0


Courant Number mean: 0.177886 max: 0.496876
deltaT = 6.17814e-05
Time = 0.00777587

alpha = 40

ExecutionTime = 0.24 s  ClockTime = 1 s
max(div(Bf)) = 0  average(div(Bf)) = 0


Courant Number mean: 0.177886 max: 0.496876
deltaT = 6.17814e-05
Time = 0.00783765

alpha = 40

ExecutionTime = 0.25 s  ClockTime = 1 s
max(div(Bf)) = 0  average(div(Bf)) = 0


Courant Number mean: 0.177886 max: 0.496876
deltaT = 6.17814e-05
Time = 0.00789943

alpha = 40

ExecutionTime = 0.25 s  ClockTime = 1 s
max(div(Bf)) = 0  average(div(Bf)) = 0


Courant Number mean: 0.177886 max: 0.496876
deltaT = 6.17814e-05
Time = 0.00796121

alpha = 40

ExecutionTime = 0.25 s  ClockTime = 1 s
max(div(Bf)) = 0  average(div(Bf)) = 0


Courant Number mean: 0.177886 max: 0.496876
deltaT = 6.17814e-05
Time = 0.008023

alpha = 40

ExecutionTime = 0.25 s  ClockTime = 1 s
max(div(Bf)) = 0  average(div(Bf)) = 0


Courant Number mean: 0.177886 max: 0.496876
deltaT = 6.17814e-05
Time = 0.00808478

alpha = 40

ExecutionTime = 0.25 s  ClockTime = 1 s
max(div(Bf)) = 0  average(div(Bf)) = 0


Courant Number mean: 0.177886 max: 0.496876
deltaT = 6.17814e-05
Time = 0.00814656

alpha = 40

ExecutionTime = 0.25 s  ClockTime = 1 s
max(div(Bf)) = 0  average(div(Bf)) = 0


Courant Number mean: 0.177886 max: 0.496876
deltaT = 6.17814e-05
Time = 0.00820834

alpha = 40

ExecutionTime = 0.25 s  ClockTime = 1 s
max(div(Bf)) = 0  average(div(Bf)) = 0


Courant Number mean: 0.177886 max: 0.496876
deltaT = 6.17814e-05
Time = 0.00827012

alpha = 40

ExecutionTime = 0.25 s  ClockTime = 1 s
max(div(Bf)) = 0  average(div(Bf)) = 0


Courant Number mean: 0.177886 max: 0.496876
deltaT = 6.17814e-05
Time = 0.0083319

alpha = 40

ExecutionTime = 0.26 s  ClockTime = 1 s
max(div(Bf)) = 0  average(div(Bf)) = 0


Courant Number mean: 0.177886 max: 0.496876
deltaT = 6.17814e-05
Time = 0.00839368

alpha = 40

ExecutionTime = 0.26 s  ClockTime = 1 s
max(div(Bf)) = 0  average(div(Bf)) = 0


Courant Number mean: 0.177886 max: 0.496876
deltaT = 6.17814e-05
Time = 0.00845547

alpha = 40

ExecutionTime = 0.26 s  ClockTime = 1 s
max(div(Bf)) = 0  average(div(Bf)) = 0


Courant Number mean: 0.177886 max: 0.496876
deltaT = 6.17814e-05
Time = 0.00851725

alpha = 40

ExecutionTime = 0.26 s  ClockTime = 1 s
max(div(Bf)) = 0  average(div(Bf)) = 0


Courant Number mean: 0.177886 max: 0.496876
deltaT = 6.17814e-05
Time = 0.00857903

alpha = 40

ExecutionTime = 0.26 s  ClockTime = 1 s
max(div(Bf)) = 0  average(div(Bf)) = 0


Courant Number mean: 0.177886 max: 0.496876
deltaT = 6.17814e-05
Time = 0.00864081

alpha = 40

ExecutionTime = 0.26 s  ClockTime = 1 s
max(div(Bf)) = 0  average(div(Bf)) = 0


Courant Number mean: 0.177886 max: 0.496876
deltaT = 6.17814e-05
Time = 0.00870259

alpha = 40

ExecutionTime = 0.26 s  ClockTime = 1 s
max(div(Bf)) = 0  average(div(Bf)) = 0


Courant Number mean: 0.177886 max: 0.496876
deltaT = 6.17814e-05
Time = 0.00876437

alpha = 40

ExecutionTime = 0.27 s  ClockTime = 1 s
max(div(Bf)) = 0  average(div(Bf)) = 0


Courant Number mean: 0.177886 max: 0.496876
deltaT = 6.17814e-05
Time = 0.00882615

alpha = 40

ExecutionTime = 0.27 s  ClockTime = 1 s
max(div(Bf)) = 0  average(div(Bf)) = 0


Courant Number mean: 0.177886 max: 0.496876
deltaT = 6.17814e-05
Time = 0.00888794

alpha = 40

ExecutionTime = 0.27 s  ClockTime = 1 s
max(div(Bf)) = 0  average(div(Bf)) = 0


Courant Number mean: 0.177886 max: 0.496876
deltaT = 6.17814e-05
Time = 0.00894972

alpha = 40

ExecutionTime = 0.27 s  ClockTime = 1 s
max(div(Bf)) = 0  average(div(Bf)) = 0


Courant Number mean: 0.177886 max: 0.496876
deltaT = 6.17814e-05
Time = 0.0090115

alpha = 40

ExecutionTime = 0.27 s  ClockTime = 1 s
max(div(Bf)) = 0  average(div(Bf)) = 0


Courant Number mean: 0.177886 max: 0.496876
deltaT = 6.17814e-05
Time = 0.00907328

alpha = 40

ExecutionTime = 0.27 s  ClockTime = 1 s
max(div(Bf)) = 0  average(div(Bf)) = 0


Courant Number mean: 0.177886 max: 0.496876
deltaT = 6.17814e-05
Time = 0.00913506

alpha = 40

ExecutionTime = 0.27 s  ClockTime = 1 s
max(div(Bf)) = 0  average(div(Bf)) = 0


Courant Number mean: 0.177886 max: 0.496876
deltaT = 6.17814e-05
Time = 0.00919684

alpha = 40

ExecutionTime = 0.27 s  ClockTime = 1 s
max(div(Bf)) = 0  average(div(Bf)) = 0


Courant Number mean: 0.177886 max: 0.496876
deltaT = 6.17814e-05
Time = 0.00925862

alpha = 40

ExecutionTime = 0.28 s  ClockTime = 1 s
max(div(Bf)) = 0  average(div(Bf)) = 0


Courant Number mean: 0.177886 max: 0.496876
deltaT = 6.17814e-05
Time = 0.0093204

alpha = 40

ExecutionTime = 0.28 s  ClockTime = 1 s
max(div(Bf)) = 0  average(div(Bf)) = 0


Courant Number mean: 0.177886 max: 0.496876
deltaT = 6.17814e-05
Time = 0.00938219

alpha = 40

ExecutionTime = 0.28 s  ClockTime = 1 s
max(div(Bf)) = 0  average(div(Bf)) = 0


Courant Number mean: 0.177886 max: 0.496876
deltaT = 6.17814e-05
Time = 0.00944397

alpha = 40

ExecutionTime = 0.28 s  ClockTime = 1 s
max(div(Bf)) = 0  average(div(Bf)) = 0


Courant Number mean: 0.177886 max: 0.496876
deltaT = 6.17814e-05
Time = 0.00950575

alpha = 40

ExecutionTime = 0.28 s  ClockTime = 1 s
max(div(Bf)) = 0  average(div(Bf)) = 0


Courant Number mean: 0.177886 max: 0.496876
deltaT = 6.17814e-05
Time = 0.00956753

alpha = 40

ExecutionTime = 0.28 s  ClockTime = 1 s
max(div(Bf)) = 0  average(div(Bf)) = 0


Courant Number mean: 0.177886 max: 0.496876
deltaT = 6.17814e-05
Time = 0.00962931

alpha = 40

ExecutionTime = 0.28 s  ClockTime = 1 s
max(div(Bf)) = 0  average(div(Bf)) = 0


Courant Number mean: 0.177886 max: 0.496876
deltaT = 6.17814e-05
Time = 0.00969109

alpha = 40

ExecutionTime = 0.29 s  ClockTime = 1 s
max(div(Bf)) = 0  average(div(Bf)) = 0


Courant Number mean: 0.177886 max: 0.496876
deltaT = 6.17814e-05
Time = 0.00975287

alpha = 40

ExecutionTime = 0.29 s  ClockTime = 1 s
max(div(Bf)) = 0  average(div(Bf)) = 0


Courant Number mean: 0.177886 max: 0.496876
deltaT = 6.17814e-05
Time = 0.00981466

alpha = 40

ExecutionTime = 0.29 s  ClockTime = 1 s
max(div(Bf)) = 0  average(div(Bf)) = 0


Courant Number mean: 0.177886 max: 0.496876
deltaT = 6.17814e-05
Time = 0.00987644

alpha = 40

ExecutionTime = 0.29 s  ClockTime = 1 s
max(div(Bf)) = 0  average(div(Bf)) = 0


Courant Number mean: 0.177886 max: 0.496876
deltaT = 6.17814e-05
Time = 0.00993822

alpha = 40

ExecutionTime = 0.29 s  ClockTime = 1 s
max(div(Bf)) = 0  average(div(Bf)) = 0


Courant Number mean: 0.177886 max: 0.496876
deltaT = 6.17814e-05
Time = 0.01

alpha = 40

ExecutionTime = 0.3 s  ClockTime = 1 s
max(div(Bf)) = 0  average(div(Bf)) = 0


Courant Number mean: 0.177886 max: 0.496876
deltaT = 6.21118e-05
Time = 0.0100621

alpha = 40

ExecutionTime = 0.3 s  ClockTime = 1 s
max(div(Bf)) = 0  average(div(Bf)) = 0


Courant Number mean: 0.178838 max: 0.499534
deltaT = 6.21118e-05
Time = 0.0101242

alpha = 40

ExecutionTime = 0.3 s  ClockTime = 1 s
max(div(Bf)) = 0  average(div(Bf)) = 0


Courant Number mean: 0.178838 max: 0.499534
deltaT = 6.21118e-05
Time = 0.0101863

alpha = 40

ExecutionTime = 0.3 s  ClockTime = 1 s
max(div(Bf)) = 0  average(div(Bf)) = 0


Courant Number mean: 0.178838 max: 0.499534
deltaT = 6.21118e-05
Time = 0.0102484

alpha = 40

ExecutionTime = 0.3 s  ClockTime = 1 s
max(div(Bf)) = 0  average(div(Bf)) = 0


Courant Number mean: 0.178838 max: 0.499534
deltaT = 6.21118e-05
Time = 0.0103106

alpha = 40

ExecutionTime = 0.3 s  ClockTime = 1 s
max(div(Bf)) = 0  average(div(Bf)) = 0


Courant Number mean: 0.178838 max: 0.499534
deltaT = 6.21118e-05
Time = 0.0103727

alpha = 40

ExecutionTime = 0.3 s  ClockTime = 1 s
max(div(Bf)) = 0  average(div(Bf)) = 0


Courant Number mean: 0.178838 max: 0.499534
deltaT = 6.21118e-05
Time = 0.0104348

alpha = 40

ExecutionTime = 0.31 s  ClockTime = 1 s
max(div(Bf)) = 0  average(div(Bf)) = 0


Courant Number mean: 0.178838 max: 0.499534
deltaT = 6.21118e-05
Time = 0.0104969

alpha = 40

ExecutionTime = 0.31 s  ClockTime = 1 s
max(div(Bf)) = 0  average(div(Bf)) = 0


Courant Number mean: 0.178838 max: 0.499534
deltaT = 6.21118e-05
Time = 0.010559

alpha = 40

ExecutionTime = 0.31 s  ClockTime = 1 s
max(div(Bf)) = 0  average(div(Bf)) = 0


Courant Number mean: 0.178838 max: 0.499534
deltaT = 6.21118e-05
Time = 0.0106211

alpha = 40

ExecutionTime = 0.31 s  ClockTime = 1 s
max(div(Bf)) = 0  average(div(Bf)) = 0


Courant Number mean: 0.178838 max: 0.499534
deltaT = 6.21118e-05
Time = 0.0106832

alpha = 40

ExecutionTime = 0.31 s  ClockTime = 1 s
max(div(Bf)) = 0  average(div(Bf)) = 0


Courant Number mean: 0.178838 max: 0.499534
deltaT = 6.21118e-05
Time = 0.0107453

alpha = 40

ExecutionTime = 0.31 s  ClockTime = 1 s
max(div(Bf)) = 0  average(div(Bf)) = 0


Courant Number mean: 0.178838 max: 0.499534
deltaT = 6.21118e-05
Time = 0.0108075

alpha = 40

ExecutionTime = 0.31 s  ClockTime = 1 s
max(div(Bf)) = 0  average(div(Bf)) = 0


Courant Number mean: 0.178838 max: 0.499534
deltaT = 6.21118e-05
Time = 0.0108696

alpha = 40

ExecutionTime = 0.31 s  ClockTime = 1 s
max(div(Bf)) = 0  average(div(Bf)) = 0


Courant Number mean: 0.178838 max: 0.499534
deltaT = 6.21118e-05
Time = 0.0109317

alpha = 40

ExecutionTime = 0.31 s  ClockTime = 1 s
max(div(Bf)) = 0  average(div(Bf)) = 0


Courant Number mean: 0.178838 max: 0.499534
deltaT = 6.21118e-05
Time = 0.0109938

alpha = 40

ExecutionTime = 0.31 s  ClockTime = 1 s
max(div(Bf)) = 0  average(div(Bf)) = 0


Courant Number mean: 0.178838 max: 0.499534
deltaT = 6.21118e-05
Time = 0.0110559

alpha = 40

ExecutionTime = 0.32 s  ClockTime = 1 s
max(div(Bf)) = 0  average(div(Bf)) = 0


Courant Number mean: 0.178838 max: 0.499534
deltaT = 6.21118e-05
Time = 0.011118

alpha = 40

ExecutionTime = 0.32 s  ClockTime = 1 s
max(div(Bf)) = 0  average(div(Bf)) = 0


Courant Number mean: 0.178838 max: 0.499534
deltaT = 6.21118e-05
Time = 0.0111801

alpha = 40

ExecutionTime = 0.32 s  ClockTime = 1 s
max(div(Bf)) = 0  average(div(Bf)) = 0


Courant Number mean: 0.178838 max: 0.499534
deltaT = 6.21118e-05
Time = 0.0112422

alpha = 40

ExecutionTime = 0.32 s  ClockTime = 1 s
max(div(Bf)) = 0  average(div(Bf)) = 0


Courant Number mean: 0.178838 max: 0.499534
deltaT = 6.21118e-05
Time = 0.0113043

alpha = 40

ExecutionTime = 0.32 s  ClockTime = 1 s
max(div(Bf)) = 0  average(div(Bf)) = 0


Courant Number mean: 0.178838 max: 0.499534
deltaT = 6.21118e-05
Time = 0.0113665

alpha = 40

ExecutionTime = 0.32 s  ClockTime = 1 s
max(div(Bf)) = 0  average(div(Bf)) = 0


Courant Number mean: 0.178838 max: 0.499534
deltaT = 6.21118e-05
Time = 0.0114286

alpha = 40

ExecutionTime = 0.32 s  ClockTime = 1 s
max(div(Bf)) = 0  average(div(Bf)) = 0


Courant Number mean: 0.178838 max: 0.499534
deltaT = 6.21118e-05
Time = 0.0114907

alpha = 40

ExecutionTime = 0.33 s  ClockTime = 1 s
max(div(Bf)) = 0  average(div(Bf)) = 0


Courant Number mean: 0.178838 max: 0.499534
deltaT = 6.21118e-05
Time = 0.0115528

alpha = 40

ExecutionTime = 0.33 s  ClockTime = 1 s
max(div(Bf)) = 0  average(div(Bf)) = 0


Courant Number mean: 0.178838 max: 0.499534
deltaT = 6.21118e-05
Time = 0.0116149

alpha = 40

ExecutionTime = 0.33 s  ClockTime = 1 s
max(div(Bf)) = 0  average(div(Bf)) = 0


Courant Number mean: 0.178838 max: 0.499534
deltaT = 6.21118e-05
Time = 0.011677

alpha = 40

ExecutionTime = 0.33 s  ClockTime = 1 s
max(div(Bf)) = 0  average(div(Bf)) = 0


Courant Number mean: 0.178838 max: 0.499534
deltaT = 6.21118e-05
Time = 0.0117391

alpha = 40

ExecutionTime = 0.33 s  ClockTime = 1 s
max(div(Bf)) = 0  average(div(Bf)) = 0


Courant Number mean: 0.178838 max: 0.499534
deltaT = 6.21118e-05
Time = 0.0118012

alpha = 40

ExecutionTime = 0.33 s  ClockTime = 1 s
max(div(Bf)) = 0  average(div(Bf)) = 0


Courant Number mean: 0.178838 max: 0.499534
deltaT = 6.21118e-05
Time = 0.0118634

alpha = 40

ExecutionTime = 0.33 s  ClockTime = 1 s
max(div(Bf)) = 0  average(div(Bf)) = 0


Courant Number mean: 0.178838 max: 0.499534
deltaT = 6.21118e-05
Time = 0.0119255

alpha = 40

ExecutionTime = 0.33 s  ClockTime = 1 s
max(div(Bf)) = 0  average(div(Bf)) = 0


Courant Number mean: 0.178838 max: 0.499534
deltaT = 6.21118e-05
Time = 0.0119876

alpha = 40

ExecutionTime = 0.34 s  ClockTime = 1 s
max(div(Bf)) = 0  average(div(Bf)) = 0


Courant Number mean: 0.178838 max: 0.499534
deltaT = 6.21118e-05
Time = 0.0120497

alpha = 40

ExecutionTime = 0.34 s  ClockTime = 1 s
max(div(Bf)) = 0  average(div(Bf)) = 0


Courant Number mean: 0.178838 max: 0.499534
deltaT = 6.21118e-05
Time = 0.0121118

alpha = 40

ExecutionTime = 0.34 s  ClockTime = 1 s
max(div(Bf)) = 0  average(div(Bf)) = 0


Courant Number mean: 0.178838 max: 0.499534
deltaT = 6.21118e-05
Time = 0.0121739

alpha = 40

ExecutionTime = 0.34 s  ClockTime = 1 s
max(div(Bf)) = 0  average(div(Bf)) = 0


Courant Number mean: 0.178838 max: 0.499534
deltaT = 6.21118e-05
Time = 0.012236

alpha = 40

ExecutionTime = 0.34 s  ClockTime = 1 s
max(div(Bf)) = 0  average(div(Bf)) = 0


Courant Number mean: 0.178838 max: 0.499534
deltaT = 6.21118e-05
Time = 0.0122981

alpha = 40

ExecutionTime = 0.34 s  ClockTime = 1 s
max(div(Bf)) = 0  average(div(Bf)) = 0


Courant Number mean: 0.178838 max: 0.499534
deltaT = 6.21118e-05
Time = 0.0123602

alpha = 40

ExecutionTime = 0.34 s  ClockTime = 1 s
max(div(Bf)) = 0  average(div(Bf)) = 0


Courant Number mean: 0.178838 max: 0.499534
deltaT = 6.21118e-05
Time = 0.0124224

alpha = 40

ExecutionTime = 0.35 s  ClockTime = 1 s
max(div(Bf)) = 0  average(div(Bf)) = 0


Courant Number mean: 0.178838 max: 0.499534
deltaT = 6.21118e-05
Time = 0.0124845

alpha = 40

ExecutionTime = 0.35 s  ClockTime = 1 s
max(div(Bf)) = 0  average(div(Bf)) = 0


Courant Number mean: 0.178838 max: 0.499534
deltaT = 6.21118e-05
Time = 0.0125466

alpha = 40

ExecutionTime = 0.35 s  ClockTime = 1 s
max(div(Bf)) = 0  average(div(Bf)) = 0


Courant Number mean: 0.178838 max: 0.499534
deltaT = 6.21118e-05
Time = 0.0126087

alpha = 40

ExecutionTime = 0.35 s  ClockTime = 1 s
max(div(Bf)) = 0  average(div(Bf)) = 0


Courant Number mean: 0.178838 max: 0.499534
deltaT = 6.21118e-05
Time = 0.0126708

alpha = 40

ExecutionTime = 0.35 s  ClockTime = 1 s
max(div(Bf)) = 0  average(div(Bf)) = 0


Courant Number mean: 0.178838 max: 0.499534
deltaT = 6.21118e-05
Time = 0.0127329

alpha = 40

ExecutionTime = 0.35 s  ClockTime = 1 s
max(div(Bf)) = 0  average(div(Bf)) = 0


Courant Number mean: 0.178838 max: 0.499534
deltaT = 6.21118e-05
Time = 0.012795

alpha = 40

ExecutionTime = 0.35 s  ClockTime = 1 s
max(div(Bf)) = 0  average(div(Bf)) = 0


Courant Number mean: 0.178838 max: 0.499534
deltaT = 6.21118e-05
Time = 0.0128571

alpha = 40

ExecutionTime = 0.35 s  ClockTime = 1 s
max(div(Bf)) = 0  average(div(Bf)) = 0


Courant Number mean: 0.178838 max: 0.499534
deltaT = 6.21118e-05
Time = 0.0129193

alpha = 40

ExecutionTime = 0.36 s  ClockTime = 1 s
max(div(Bf)) = 0  average(div(Bf)) = 0


Courant Number mean: 0.178838 max: 0.499534
deltaT = 6.21118e-05
Time = 0.0129814

alpha = 40

ExecutionTime = 0.36 s  ClockTime = 1 s
max(div(Bf)) = 0  average(div(Bf)) = 0


Courant Number mean: 0.178838 max: 0.499534
deltaT = 6.21118e-05
Time = 0.0130435

alpha = 40

ExecutionTime = 0.36 s  ClockTime = 1 s
max(div(Bf)) = 0  average(div(Bf)) = 0


Courant Number mean: 0.178838 max: 0.499534
deltaT = 6.21118e-05
Time = 0.0131056

alpha = 40

ExecutionTime = 0.36 s  ClockTime = 1 s
max(div(Bf)) = 0  average(div(Bf)) = 0


Courant Number mean: 0.178838 max: 0.499534
deltaT = 6.21118e-05
Time = 0.0131677

alpha = 40

ExecutionTime = 0.36 s  ClockTime = 1 s
max(div(Bf)) = 0  average(div(Bf)) = 0


Courant Number mean: 0.178838 max: 0.499534
deltaT = 6.21118e-05
Time = 0.0132298

alpha = 40

ExecutionTime = 0.36 s  ClockTime = 1 s
max(div(Bf)) = 0  average(div(Bf)) = 0


Courant Number mean: 0.178838 max: 0.499534
deltaT = 6.21118e-05
Time = 0.0132919

alpha = 40

ExecutionTime = 0.36 s  ClockTime = 1 s
max(div(Bf)) = 0  average(div(Bf)) = 0


Courant Number mean: 0.178838 max: 0.499534
deltaT = 6.21118e-05
Time = 0.013354

alpha = 40

ExecutionTime = 0.37 s  ClockTime = 1 s
max(div(Bf)) = 0  average(div(Bf)) = 0


Courant Number mean: 0.178838 max: 0.499534
deltaT = 6.21118e-05
Time = 0.0134161

alpha = 40

ExecutionTime = 0.37 s  ClockTime = 1 s
max(div(Bf)) = 0  average(div(Bf)) = 0


Courant Number mean: 0.178838 max: 0.499534
deltaT = 6.21118e-05
Time = 0.0134783

alpha = 40

ExecutionTime = 0.37 s  ClockTime = 1 s
max(div(Bf)) = 0  average(div(Bf)) = 0


Courant Number mean: 0.178838 max: 0.499534
deltaT = 6.21118e-05
Time = 0.0135404

alpha = 40

ExecutionTime = 0.37 s  ClockTime = 1 s
max(div(Bf)) = 0  average(div(Bf)) = 0


Courant Number mean: 0.178838 max: 0.499534
deltaT = 6.21118e-05
Time = 0.0136025

alpha = 40

ExecutionTime = 0.37 s  ClockTime = 1 s
max(div(Bf)) = 0  average(div(Bf)) = 0


Courant Number mean: 0.178838 max: 0.499534
deltaT = 6.21118e-05
Time = 0.0136646

alpha = 40

ExecutionTime = 0.37 s  ClockTime = 1 s
max(div(Bf)) = 0  average(div(Bf)) = 0


Courant Number mean: 0.178838 max: 0.499534
deltaT = 6.21118e-05
Time = 0.0137267

alpha = 40

ExecutionTime = 0.37 s  ClockTime = 1 s
max(div(Bf)) = 0  average(div(Bf)) = 0


Courant Number mean: 0.178838 max: 0.499534
deltaT = 6.21118e-05
Time = 0.0137888

alpha = 40

ExecutionTime = 0.37 s  ClockTime = 1 s
max(div(Bf)) = 0  average(div(Bf)) = 0


Courant Number mean: 0.178838 max: 0.499534
deltaT = 6.21118e-05
Time = 0.0138509

alpha = 40

ExecutionTime = 0.38 s  ClockTime = 1 s
max(div(Bf)) = 0  average(div(Bf)) = 0


Courant Number mean: 0.178838 max: 0.499534
deltaT = 6.21118e-05
Time = 0.013913

alpha = 40

ExecutionTime = 0.38 s  ClockTime = 1 s
max(div(Bf)) = 0  average(div(Bf)) = 0


Courant Number mean: 0.178838 max: 0.499534
deltaT = 6.21118e-05
Time = 0.0139752

alpha = 40

ExecutionTime = 0.38 s  ClockTime = 1 s
max(div(Bf)) = 0  average(div(Bf)) = 0


Courant Number mean: 0.178838 max: 0.499534
deltaT = 6.21118e-05
Time = 0.0140373

alpha = 40

ExecutionTime = 0.38 s  ClockTime = 1 s
max(div(Bf)) = 0  average(div(Bf)) = 0


Courant Number mean: 0.178838 max: 0.499534
deltaT = 6.21118e-05
Time = 0.0140994

alpha = 40

ExecutionTime = 0.38 s  ClockTime = 1 s
max(div(Bf)) = 0  average(div(Bf)) = 0


Courant Number mean: 0.178838 max: 0.499534
deltaT = 6.21118e-05
Time = 0.0141615

alpha = 40

ExecutionTime = 0.38 s  ClockTime = 1 s
max(div(Bf)) = 0  average(div(Bf)) = 0


Courant Number mean: 0.178838 max: 0.499534
deltaT = 6.21118e-05
Time = 0.0142236

alpha = 40

ExecutionTime = 0.38 s  ClockTime = 1 s
max(div(Bf)) = 0  average(div(Bf)) = 0


Courant Number mean: 0.178838 max: 0.499534
deltaT = 6.21118e-05
Time = 0.0142857

alpha = 40

ExecutionTime = 0.39 s  ClockTime = 1 s
max(div(Bf)) = 0  average(div(Bf)) = 0


Courant Number mean: 0.178838 max: 0.499534
deltaT = 6.21118e-05
Time = 0.0143478

alpha = 40

ExecutionTime = 0.39 s  ClockTime = 1 s
max(div(Bf)) = 0  average(div(Bf)) = 0


Courant Number mean: 0.178838 max: 0.499534
deltaT = 6.21118e-05
Time = 0.0144099

alpha = 40

ExecutionTime = 0.39 s  ClockTime = 1 s
max(div(Bf)) = 0  average(div(Bf)) = 0


Courant Number mean: 0.178838 max: 0.499534
deltaT = 6.21118e-05
Time = 0.014472

alpha = 40

ExecutionTime = 0.39 s  ClockTime = 1 s
max(div(Bf)) = 0  average(div(Bf)) = 0


Courant Number mean: 0.178838 max: 0.499534
deltaT = 6.21118e-05
Time = 0.0145342

alpha = 40

ExecutionTime = 0.39 s  ClockTime = 1 s
max(div(Bf)) = 0  average(div(Bf)) = 0


Courant Number mean: 0.178838 max: 0.499534
deltaT = 6.21118e-05
Time = 0.0145963

alpha = 40

ExecutionTime = 0.39 s  ClockTime = 1 s
max(div(Bf)) = 0  average(div(Bf)) = 0


Courant Number mean: 0.178838 max: 0.499534
deltaT = 6.21118e-05
Time = 0.0146584

alpha = 40

ExecutionTime = 0.39 s  ClockTime = 1 s
max(div(Bf)) = 0  average(div(Bf)) = 0


Courant Number mean: 0.178838 max: 0.499534
deltaT = 6.21118e-05
Time = 0.0147205

alpha = 40

ExecutionTime = 0.39 s  ClockTime = 1 s
max(div(Bf)) = 0  average(div(Bf)) = 0


Courant Number mean: 0.178838 max: 0.499534
deltaT = 6.21118e-05
Time = 0.0147826

alpha = 40

ExecutionTime = 0.4 s  ClockTime = 1 s
max(div(Bf)) = 0  average(div(Bf)) = 0


Courant Number mean: 0.178838 max: 0.499534
deltaT = 6.21118e-05
Time = 0.0148447

alpha = 40

ExecutionTime = 0.4 s  ClockTime = 1 s
max(div(Bf)) = 0  average(div(Bf)) = 0


Courant Number mean: 0.178838 max: 0.499534
deltaT = 6.21118e-05
Time = 0.0149068

alpha = 40

ExecutionTime = 0.4 s  ClockTime = 1 s
max(div(Bf)) = 0  average(div(Bf)) = 0


Courant Number mean: 0.178838 max: 0.499534
deltaT = 6.21118e-05
Time = 0.0149689

alpha = 40

ExecutionTime = 0.4 s  ClockTime = 1 s
max(div(Bf)) = 0  average(div(Bf)) = 0


Courant Number mean: 0.178838 max: 0.499534
deltaT = 6.21118e-05
Time = 0.0150311

alpha = 40

ExecutionTime = 0.4 s  ClockTime = 1 s
max(div(Bf)) = 0  average(div(Bf)) = 0


Courant Number mean: 0.178838 max: 0.499534
deltaT = 6.21118e-05
Time = 0.0150932

alpha = 40

ExecutionTime = 0.4 s  ClockTime = 1 s
max(div(Bf)) = 0  average(div(Bf)) = 0


Courant Number mean: 0.178838 max: 0.499534
deltaT = 6.21118e-05
Time = 0.0151553

alpha = 40

ExecutionTime = 0.4 s  ClockTime = 1 s
max(div(Bf)) = 0  average(div(Bf)) = 0


Courant Number mean: 0.178838 max: 0.499534
deltaT = 6.21118e-05
Time = 0.0152174

alpha = 40

ExecutionTime = 0.41 s  ClockTime = 1 s
max(div(Bf)) = 0  average(div(Bf)) = 0


Courant Number mean: 0.178838 max: 0.499534
deltaT = 6.21118e-05
Time = 0.0152795

alpha = 40

ExecutionTime = 0.41 s  ClockTime = 1 s
max(div(Bf)) = 0  average(div(Bf)) = 0


Courant Number mean: 0.178838 max: 0.499534
deltaT = 6.21118e-05
Time = 0.0153416

alpha = 40

ExecutionTime = 0.41 s  ClockTime = 1 s
max(div(Bf)) = 0  average(div(Bf)) = 0


Courant Number mean: 0.178838 max: 0.499534
deltaT = 6.21118e-05
Time = 0.0154037

alpha = 40

ExecutionTime = 0.41 s  ClockTime = 1 s
max(div(Bf)) = 0  average(div(Bf)) = 0


Courant Number mean: 0.178838 max: 0.499534
deltaT = 6.21118e-05
Time = 0.0154658

alpha = 40

ExecutionTime = 0.41 s  ClockTime = 1 s
max(div(Bf)) = 0  average(div(Bf)) = 0


Courant Number mean: 0.178838 max: 0.499534
deltaT = 6.21118e-05
Time = 0.015528

alpha = 40

ExecutionTime = 0.41 s  ClockTime = 1 s
max(div(Bf)) = 0  average(div(Bf)) = 0


Courant Number mean: 0.178838 max: 0.499534
deltaT = 6.21118e-05
Time = 0.0155901

alpha = 40

ExecutionTime = 0.41 s  ClockTime = 1 s
max(div(Bf)) = 0  average(div(Bf)) = 0


Courant Number mean: 0.178838 max: 0.499534
deltaT = 6.21118e-05
Time = 0.0156522

alpha = 40

ExecutionTime = 0.41 s  ClockTime = 1 s
max(div(Bf)) = 0  average(div(Bf)) = 0


Courant Number mean: 0.178838 max: 0.499534
deltaT = 6.21118e-05
Time = 0.0157143

alpha = 40

ExecutionTime = 0.42 s  ClockTime = 1 s
max(div(Bf)) = 0  average(div(Bf)) = 0


Courant Number mean: 0.178838 max: 0.499534
deltaT = 6.21118e-05
Time = 0.0157764

alpha = 40

ExecutionTime = 0.42 s  ClockTime = 1 s
max(div(Bf)) = 0  average(div(Bf)) = 0


Courant Number mean: 0.178838 max: 0.499534
deltaT = 6.21118e-05
Time = 0.0158385

alpha = 40

ExecutionTime = 0.42 s  ClockTime = 1 s
max(div(Bf)) = 0  average(div(Bf)) = 0


Courant Number mean: 0.178838 max: 0.499534
deltaT = 6.21118e-05
Time = 0.0159006

alpha = 40

ExecutionTime = 0.42 s  ClockTime = 1 s
max(div(Bf)) = 0  average(div(Bf)) = 0


Courant Number mean: 0.178838 max: 0.499534
deltaT = 6.21118e-05
Time = 0.0159627

alpha = 40

ExecutionTime = 0.42 s  ClockTime = 1 s
max(div(Bf)) = 0  average(div(Bf)) = 0


Courant Number mean: 0.178838 max: 0.499534
deltaT = 6.21118e-05
Time = 0.0160248

alpha = 40

ExecutionTime = 0.42 s  ClockTime = 1 s
max(div(Bf)) = 0  average(div(Bf)) = 0


Courant Number mean: 0.178838 max: 0.499534
deltaT = 6.21118e-05
Time = 0.016087

alpha = 40

ExecutionTime = 0.42 s  ClockTime = 1 s
max(div(Bf)) = 0  average(div(Bf)) = 0


Courant Number mean: 0.178838 max: 0.499534
deltaT = 6.21118e-05
Time = 0.0161491

alpha = 40

ExecutionTime = 0.43 s  ClockTime = 1 s
max(div(Bf)) = 0  average(div(Bf)) = 0


Courant Number mean: 0.178838 max: 0.499534
deltaT = 6.21118e-05
Time = 0.0162112

alpha = 40

ExecutionTime = 0.43 s  ClockTime = 1 s
max(div(Bf)) = 0  average(div(Bf)) = 0


Courant Number mean: 0.178838 max: 0.499534
deltaT = 6.21118e-05
Time = 0.0162733

alpha = 40

ExecutionTime = 0.43 s  ClockTime = 1 s
max(div(Bf)) = 0  average(div(Bf)) = 0


Courant Number mean: 0.178838 max: 0.499534
deltaT = 6.21118e-05
Time = 0.0163354

alpha = 40

ExecutionTime = 0.43 s  ClockTime = 1 s
max(div(Bf)) = 0  average(div(Bf)) = 0


Courant Number mean: 0.178838 max: 0.499534
deltaT = 6.21118e-05
Time = 0.0163975

alpha = 40

ExecutionTime = 0.43 s  ClockTime = 1 s
max(div(Bf)) = 0  average(div(Bf)) = 0


Courant Number mean: 0.178838 max: 0.499534
deltaT = 6.21118e-05
Time = 0.0164596

alpha = 40

ExecutionTime = 0.43 s  ClockTime = 1 s
max(div(Bf)) = 0  average(div(Bf)) = 0


Courant Number mean: 0.178838 max: 0.499534
deltaT = 6.21118e-05
Time = 0.0165217

alpha = 40

ExecutionTime = 0.43 s  ClockTime = 1 s
max(div(Bf)) = 0  average(div(Bf)) = 0


Courant Number mean: 0.178838 max: 0.499534
deltaT = 6.21118e-05
Time = 0.0165839

alpha = 40

ExecutionTime = 0.44 s  ClockTime = 1 s
max(div(Bf)) = 0  average(div(Bf)) = 0


Courant Number mean: 0.178838 max: 0.499534
deltaT = 6.21118e-05
Time = 0.016646

alpha = 40

ExecutionTime = 0.44 s  ClockTime = 1 s
max(div(Bf)) = 0  average(div(Bf)) = 0


Courant Number mean: 0.178838 max: 0.499534
deltaT = 6.21118e-05
Time = 0.0167081

alpha = 40

ExecutionTime = 0.44 s  ClockTime = 1 s
max(div(Bf)) = 0  average(div(Bf)) = 0


Courant Number mean: 0.178838 max: 0.499534
deltaT = 6.21118e-05
Time = 0.0167702

alpha = 40

ExecutionTime = 0.44 s  ClockTime = 1 s
max(div(Bf)) = 0  average(div(Bf)) = 0


Courant Number mean: 0.178838 max: 0.499534
deltaT = 6.21118e-05
Time = 0.0168323

alpha = 40

ExecutionTime = 0.44 s  ClockTime = 1 s
max(div(Bf)) = 0  average(div(Bf)) = 0


Courant Number mean: 0.178838 max: 0.499534
deltaT = 6.21118e-05
Time = 0.0168944

alpha = 40

ExecutionTime = 0.44 s  ClockTime = 1 s
max(div(Bf)) = 0  average(div(Bf)) = 0


Courant Number mean: 0.178838 max: 0.499534
deltaT = 6.21118e-05
Time = 0.0169565

alpha = 40

ExecutionTime = 0.44 s  ClockTime = 1 s
max(div(Bf)) = 0  average(div(Bf)) = 0


Courant Number mean: 0.178838 max: 0.499534
deltaT = 6.21118e-05
Time = 0.0170186

alpha = 40

ExecutionTime = 0.44 s  ClockTime = 1 s
max(div(Bf)) = 0  average(div(Bf)) = 0


Courant Number mean: 0.178838 max: 0.499534
deltaT = 6.21118e-05
Time = 0.0170807

alpha = 40

ExecutionTime = 0.45 s  ClockTime = 1 s
max(div(Bf)) = 0  average(div(Bf)) = 0


Courant Number mean: 0.178838 max: 0.499534
deltaT = 6.21118e-05
Time = 0.0171429

alpha = 40

ExecutionTime = 0.45 s  ClockTime = 1 s
max(div(Bf)) = 0  average(div(Bf)) = 0


Courant Number mean: 0.178838 max: 0.499534
deltaT = 6.21118e-05
Time = 0.017205

alpha = 40

ExecutionTime = 0.45 s  ClockTime = 1 s
max(div(Bf)) = 0  average(div(Bf)) = 0


Courant Number mean: 0.178838 max: 0.499534
deltaT = 6.21118e-05
Time = 0.0172671

alpha = 40

ExecutionTime = 0.45 s  ClockTime = 1 s
max(div(Bf)) = 0  average(div(Bf)) = 0


Courant Number mean: 0.178838 max: 0.499534
deltaT = 6.21118e-05
Time = 0.0173292

alpha = 40

ExecutionTime = 0.45 s  ClockTime = 1 s
max(div(Bf)) = 0  average(div(Bf)) = 0


Courant Number mean: 0.178838 max: 0.499534
deltaT = 6.21118e-05
Time = 0.0173913

alpha = 40

ExecutionTime = 0.45 s  ClockTime = 1 s
max(div(Bf)) = 0  average(div(Bf)) = 0


Courant Number mean: 0.178838 max: 0.499534
deltaT = 6.21118e-05
Time = 0.0174534

alpha = 40

ExecutionTime = 0.45 s  ClockTime = 1 s
max(div(Bf)) = 0  average(div(Bf)) = 0


Courant Number mean: 0.178838 max: 0.499534
deltaT = 6.21118e-05
Time = 0.0175155

alpha = 40

ExecutionTime = 0.46 s  ClockTime = 1 s
max(div(Bf)) = 0  average(div(Bf)) = 0


Courant Number mean: 0.178838 max: 0.499534
deltaT = 6.21118e-05
Time = 0.0175776

alpha = 40

ExecutionTime = 0.46 s  ClockTime = 1 s
max(div(Bf)) = 0  average(div(Bf)) = 0


Courant Number mean: 0.178838 max: 0.499534
deltaT = 6.21118e-05
Time = 0.0176398

alpha = 40

ExecutionTime = 0.46 s  ClockTime = 1 s
max(div(Bf)) = 0  average(div(Bf)) = 0


Courant Number mean: 0.178838 max: 0.499534
deltaT = 6.21118e-05
Time = 0.0177019

alpha = 40

ExecutionTime = 0.46 s  ClockTime = 1 s
max(div(Bf)) = 0  average(div(Bf)) = 0


Courant Number mean: 0.178838 max: 0.499534
deltaT = 6.21118e-05
Time = 0.017764

alpha = 40

ExecutionTime = 0.46 s  ClockTime = 1 s
max(div(Bf)) = 0  average(div(Bf)) = 0


Courant Number mean: 0.178838 max: 0.499534
deltaT = 6.21118e-05
Time = 0.0178261

alpha = 40

ExecutionTime = 0.46 s  ClockTime = 1 s
max(div(Bf)) = 0  average(div(Bf)) = 0


Courant Number mean: 0.178838 max: 0.499534
deltaT = 6.21118e-05
Time = 0.0178882

alpha = 40

ExecutionTime = 0.46 s  ClockTime = 1 s
max(div(Bf)) = 0  average(div(Bf)) = 0


Courant Number mean: 0.178838 max: 0.499534
deltaT = 6.21118e-05
Time = 0.0179503

alpha = 40

ExecutionTime = 0.46 s  ClockTime = 1 s
max(div(Bf)) = 0  average(div(Bf)) = 0


Courant Number mean: 0.178838 max: 0.499534
deltaT = 6.21118e-05
Time = 0.0180124

alpha = 40

ExecutionTime = 0.47 s  ClockTime = 1 s
max(div(Bf)) = 0  average(div(Bf)) = 0


Courant Number mean: 0.178838 max: 0.499534
deltaT = 6.21118e-05
Time = 0.0180745

alpha = 40

ExecutionTime = 0.47 s  ClockTime = 1 s
max(div(Bf)) = 0  average(div(Bf)) = 0


Courant Number mean: 0.178838 max: 0.499534
deltaT = 6.21118e-05
Time = 0.0181366

alpha = 40

ExecutionTime = 0.47 s  ClockTime = 1 s
max(div(Bf)) = 0  average(div(Bf)) = 0


Courant Number mean: 0.178838 max: 0.499534
deltaT = 6.21118e-05
Time = 0.0181988

alpha = 40

ExecutionTime = 0.47 s  ClockTime = 1 s
max(div(Bf)) = 0  average(div(Bf)) = 0


Courant Number mean: 0.178838 max: 0.499534
deltaT = 6.21118e-05
Time = 0.0182609

alpha = 40

ExecutionTime = 0.47 s  ClockTime = 1 s
max(div(Bf)) = 0  average(div(Bf)) = 0


Courant Number mean: 0.178838 max: 0.499534
deltaT = 6.21118e-05
Time = 0.018323

alpha = 40

ExecutionTime = 0.47 s  ClockTime = 1 s
max(div(Bf)) = 0  average(div(Bf)) = 0


Courant Number mean: 0.178838 max: 0.499534
deltaT = 6.21118e-05
Time = 0.0183851

alpha = 40

ExecutionTime = 0.47 s  ClockTime = 1 s
max(div(Bf)) = 0  average(div(Bf)) = 0


Courant Number mean: 0.178838 max: 0.499534
deltaT = 6.21118e-05
Time = 0.0184472

alpha = 40

ExecutionTime = 0.48 s  ClockTime = 1 s
max(div(Bf)) = 0  average(div(Bf)) = 0


Courant Number mean: 0.178838 max: 0.499534
deltaT = 6.21118e-05
Time = 0.0185093

alpha = 40

ExecutionTime = 0.48 s  ClockTime = 1 s
max(div(Bf)) = 0  average(div(Bf)) = 0


Courant Number mean: 0.178838 max: 0.499534
deltaT = 6.21118e-05
Time = 0.0185714

alpha = 40

ExecutionTime = 0.48 s  ClockTime = 1 s
max(div(Bf)) = 0  average(div(Bf)) = 0


Courant Number mean: 0.178838 max: 0.499534
deltaT = 6.21118e-05
Time = 0.0186335

alpha = 40

ExecutionTime = 0.48 s  ClockTime = 1 s
max(div(Bf)) = 0  average(div(Bf)) = 0


Courant Number mean: 0.178838 max: 0.499534
deltaT = 6.21118e-05
Time = 0.0186957

alpha = 40

ExecutionTime = 0.48 s  ClockTime = 1 s
max(div(Bf)) = 0  average(div(Bf)) = 0


Courant Number mean: 0.178838 max: 0.499534
deltaT = 6.21118e-05
Time = 0.0187578

alpha = 40

ExecutionTime = 0.48 s  ClockTime = 1 s
max(div(Bf)) = 0  average(div(Bf)) = 0


Courant Number mean: 0.178838 max: 0.499534
deltaT = 6.21118e-05
Time = 0.0188199

alpha = 40

ExecutionTime = 0.48 s  ClockTime = 1 s
max(div(Bf)) = 0  average(div(Bf)) = 0


Courant Number mean: 0.178838 max: 0.499534
deltaT = 6.21118e-05
Time = 0.018882

alpha = 40

ExecutionTime = 0.48 s  ClockTime = 1 s
max(div(Bf)) = 0  average(div(Bf)) = 0


Courant Number mean: 0.178838 max: 0.499534
deltaT = 6.21118e-05
Time = 0.0189441

alpha = 40

ExecutionTime = 0.49 s  ClockTime = 1 s
max(div(Bf)) = 0  average(div(Bf)) = 0


Courant Number mean: 0.178838 max: 0.499534
deltaT = 6.21118e-05
Time = 0.0190062

alpha = 40

ExecutionTime = 0.49 s  ClockTime = 1 s
max(div(Bf)) = 0  average(div(Bf)) = 0


Courant Number mean: 0.178838 max: 0.499534
deltaT = 6.21118e-05
Time = 0.0190683

alpha = 40

ExecutionTime = 0.49 s  ClockTime = 1 s
max(div(Bf)) = 0  average(div(Bf)) = 0


Courant Number mean: 0.178838 max: 0.499534
deltaT = 6.21118e-05
Time = 0.0191304

alpha = 40

ExecutionTime = 0.49 s  ClockTime = 1 s
max(div(Bf)) = 0  average(div(Bf)) = 0


Courant Number mean: 0.178838 max: 0.499534
deltaT = 6.21118e-05
Time = 0.0191925

alpha = 40

ExecutionTime = 0.49 s  ClockTime = 1 s
max(div(Bf)) = 0  average(div(Bf)) = 0


Courant Number mean: 0.178838 max: 0.499534
deltaT = 6.21118e-05
Time = 0.0192547

alpha = 40

ExecutionTime = 0.49 s  ClockTime = 1 s
max(div(Bf)) = 0  average(div(Bf)) = 0


Courant Number mean: 0.178838 max: 0.499534
deltaT = 6.21118e-05
Time = 0.0193168

alpha = 40

ExecutionTime = 0.49 s  ClockTime = 1 s
max(div(Bf)) = 0  average(div(Bf)) = 0


Courant Number mean: 0.178838 max: 0.499534
deltaT = 6.21118e-05
Time = 0.0193789

alpha = 40

ExecutionTime = 0.5 s  ClockTime = 1 s
max(div(Bf)) = 0  average(div(Bf)) = 0


Courant Number mean: 0.178838 max: 0.499534
deltaT = 6.21118e-05
Time = 0.019441

alpha = 40

ExecutionTime = 0.5 s  ClockTime = 1 s
max(div(Bf)) = 0  average(div(Bf)) = 0


Courant Number mean: 0.178838 max: 0.499534
deltaT = 6.21118e-05
Time = 0.0195031

alpha = 40

ExecutionTime = 0.5 s  ClockTime = 1 s
max(div(Bf)) = 0  average(div(Bf)) = 0


Courant Number mean: 0.178838 max: 0.499534
deltaT = 6.21118e-05
Time = 0.0195652

alpha = 40

ExecutionTime = 0.5 s  ClockTime = 1 s
max(div(Bf)) = 0  average(div(Bf)) = 0


Courant Number mean: 0.178838 max: 0.499534
deltaT = 6.21118e-05
Time = 0.0196273

alpha = 40

ExecutionTime = 0.5 s  ClockTime = 1 s
max(div(Bf)) = 0  average(div(Bf)) = 0


Courant Number mean: 0.178838 max: 0.499534
deltaT = 6.21118e-05
Time = 0.0196894

alpha = 40

ExecutionTime = 0.5 s  ClockTime = 1 s
max(div(Bf)) = 0  average(div(Bf)) = 0


Courant Number mean: 0.178838 max: 0.499534
deltaT = 6.21118e-05
Time = 0.0197516

alpha = 40

ExecutionTime = 0.5 s  ClockTime = 1 s
max(div(Bf)) = 0  average(div(Bf)) = 0


Courant Number mean: 0.178838 max: 0.499534
deltaT = 6.21118e-05
Time = 0.0198137

alpha = 40

ExecutionTime = 0.51 s  ClockTime = 1 s
max(div(Bf)) = 0  average(div(Bf)) = 0


Courant Number mean: 0.178838 max: 0.499534
deltaT = 6.21118e-05
Time = 0.0198758

alpha = 40

ExecutionTime = 0.51 s  ClockTime = 1 s
max(div(Bf)) = 0  average(div(Bf)) = 0


Courant Number mean: 0.178838 max: 0.499534
deltaT = 6.21118e-05
Time = 0.0199379

alpha = 40

ExecutionTime = 0.51 s  ClockTime = 1 s
max(div(Bf)) = 0  average(div(Bf)) = 0


Courant Number mean: 0.178838 max: 0.499534
deltaT = 6.21118e-05
Time = 0.02

alpha = 40

ExecutionTime = 0.51 s  ClockTime = 1 s
max(div(Bf)) = 0  average(div(Bf)) = 0


Courant Number mean: 0.178838 max: 0.499534
deltaT = 6.21118e-05
Time = 0.0200621

alpha = 40

ExecutionTime = 0.51 s  ClockTime = 1 s
max(div(Bf)) = 0  average(div(Bf)) = 0


Courant Number mean: 0.178838 max: 0.499534
deltaT = 6.21118e-05
Time = 0.0201242

alpha = 40

ExecutionTime = 0.52 s  ClockTime = 1 s
max(div(Bf)) = 0  average(div(Bf)) = 0


Courant Number mean: 0.178838 max: 0.499534
deltaT = 6.21118e-05
Time = 0.0201863

alpha = 40

ExecutionTime = 0.52 s  ClockTime = 1 s
max(div(Bf)) = 0  average(div(Bf)) = 0


Courant Number mean: 0.178838 max: 0.499534
deltaT = 6.21118e-05
Time = 0.0202484

alpha = 40

ExecutionTime = 0.52 s  ClockTime = 1 s
max(div(Bf)) = 0  average(div(Bf)) = 0


Courant Number mean: 0.178838 max: 0.499534
deltaT = 6.21118e-05
Time = 0.0203106

alpha = 40

ExecutionTime = 0.52 s  ClockTime = 1 s
max(div(Bf)) = 0  average(div(Bf)) = 0


Courant Number mean: 0.178838 max: 0.499534
deltaT = 6.21118e-05
Time = 0.0203727

alpha = 40

ExecutionTime = 0.52 s  ClockTime = 1 s
max(div(Bf)) = 0  average(div(Bf)) = 0


Courant Number mean: 0.178838 max: 0.499534
deltaT = 6.21118e-05
Time = 0.0204348

alpha = 40

ExecutionTime = 0.52 s  ClockTime = 1 s
max(div(Bf)) = 0  average(div(Bf)) = 0


Courant Number mean: 0.178838 max: 0.499534
deltaT = 6.21118e-05
Time = 0.0204969

alpha = 40

ExecutionTime = 0.52 s  ClockTime = 1 s
max(div(Bf)) = 0  average(div(Bf)) = 0


Courant Number mean: 0.178838 max: 0.499534
deltaT = 6.21118e-05
Time = 0.020559

alpha = 40

ExecutionTime = 0.53 s  ClockTime = 1 s
max(div(Bf)) = 0  average(div(Bf)) = 0


Courant Number mean: 0.178838 max: 0.499534
deltaT = 6.21118e-05
Time = 0.0206211

alpha = 40

ExecutionTime = 0.53 s  ClockTime = 1 s
max(div(Bf)) = 0  average(div(Bf)) = 0


Courant Number mean: 0.178838 max: 0.499534
deltaT = 6.21118e-05
Time = 0.0206832

alpha = 40

ExecutionTime = 0.53 s  ClockTime = 1 s
max(div(Bf)) = 0  average(div(Bf)) = 0


Courant Number mean: 0.178838 max: 0.499534
deltaT = 6.21118e-05
Time = 0.0207453

alpha = 40

ExecutionTime = 0.53 s  ClockTime = 1 s
max(div(Bf)) = 0  average(div(Bf)) = 0


Courant Number mean: 0.178838 max: 0.499534
deltaT = 6.21118e-05
Time = 0.0208075

alpha = 40

ExecutionTime = 0.53 s  ClockTime = 1 s
max(div(Bf)) = 0  average(div(Bf)) = 0


Courant Number mean: 0.178838 max: 0.499534
deltaT = 6.21118e-05
Time = 0.0208696

alpha = 40

ExecutionTime = 0.53 s  ClockTime = 1 s
max(div(Bf)) = 0  average(div(Bf)) = 0


Courant Number mean: 0.178838 max: 0.499534
deltaT = 6.21118e-05
Time = 0.0209317

alpha = 40

ExecutionTime = 0.53 s  ClockTime = 1 s
max(div(Bf)) = 0  average(div(Bf)) = 0


Courant Number mean: 0.178838 max: 0.499534
deltaT = 6.21118e-05
Time = 0.0209938

alpha = 40

ExecutionTime = 0.53 s  ClockTime = 1 s
max(div(Bf)) = 0  average(div(Bf)) = 0


Courant Number mean: 0.178838 max: 0.499534
deltaT = 6.21118e-05
Time = 0.0210559

alpha = 40

ExecutionTime = 0.54 s  ClockTime = 1 s
max(div(Bf)) = 0  average(div(Bf)) = 0


Courant Number mean: 0.178838 max: 0.499534
deltaT = 6.21118e-05
Time = 0.021118

alpha = 40

ExecutionTime = 0.54 s  ClockTime = 1 s
max(div(Bf)) = 0  average(div(Bf)) = 0


Courant Number mean: 0.178838 max: 0.499534
deltaT = 6.21118e-05
Time = 0.0211801

alpha = 40

ExecutionTime = 0.54 s  ClockTime = 1 s
max(div(Bf)) = 0  average(div(Bf)) = 0


Courant Number mean: 0.178838 max: 0.499534
deltaT = 6.21118e-05
Time = 0.0212422

alpha = 40

ExecutionTime = 0.54 s  ClockTime = 1 s
max(div(Bf)) = 0  average(div(Bf)) = 0


Courant Number mean: 0.178838 max: 0.499534
deltaT = 6.21118e-05
Time = 0.0213043

alpha = 40

ExecutionTime = 0.54 s  ClockTime = 1 s
max(div(Bf)) = 0  average(div(Bf)) = 0


Courant Number mean: 0.178838 max: 0.499534
deltaT = 6.21118e-05
Time = 0.0213665

alpha = 40

ExecutionTime = 0.54 s  ClockTime = 1 s
max(div(Bf)) = 0  average(div(Bf)) = 0


Courant Number mean: 0.178838 max: 0.499534
deltaT = 6.21118e-05
Time = 0.0214286

alpha = 40

ExecutionTime = 0.54 s  ClockTime = 1 s
max(div(Bf)) = 0  average(div(Bf)) = 0


Courant Number mean: 0.178838 max: 0.499534
deltaT = 6.21118e-05
Time = 0.0214907

alpha = 40

ExecutionTime = 0.55 s  ClockTime = 1 s
max(div(Bf)) = 0  average(div(Bf)) = 0


Courant Number mean: 0.178838 max: 0.499534
deltaT = 6.21118e-05
Time = 0.0215528

alpha = 40

ExecutionTime = 0.55 s  ClockTime = 1 s
max(div(Bf)) = 0  average(div(Bf)) = 0


Courant Number mean: 0.178838 max: 0.499534
deltaT = 6.21118e-05
Time = 0.0216149

alpha = 40

ExecutionTime = 0.55 s  ClockTime = 1 s
max(div(Bf)) = 0  average(div(Bf)) = 0


Courant Number mean: 0.178838 max: 0.499534
deltaT = 6.21118e-05
Time = 0.021677

alpha = 40

ExecutionTime = 0.55 s  ClockTime = 1 s
max(div(Bf)) = 0  average(div(Bf)) = 0


Courant Number mean: 0.178838 max: 0.499534
deltaT = 6.21118e-05
Time = 0.0217391

alpha = 40

ExecutionTime = 0.55 s  ClockTime = 1 s
max(div(Bf)) = 0  average(div(Bf)) = 0


Courant Number mean: 0.178838 max: 0.499534
deltaT = 6.21118e-05
Time = 0.0218012

alpha = 40

ExecutionTime = 0.55 s  ClockTime = 1 s
max(div(Bf)) = 0  average(div(Bf)) = 0


Courant Number mean: 0.178838 max: 0.499534
deltaT = 6.21118e-05
Time = 0.0218634

alpha = 40

ExecutionTime = 0.55 s  ClockTime = 1 s
max(div(Bf)) = 0  average(div(Bf)) = 0


Courant Number mean: 0.178838 max: 0.499534
deltaT = 6.21118e-05
Time = 0.0219255

alpha = 40

ExecutionTime = 0.56 s  ClockTime = 1 s
max(div(Bf)) = 0  average(div(Bf)) = 0


Courant Number mean: 0.178838 max: 0.499534
deltaT = 6.21118e-05
Time = 0.0219876

alpha = 40

ExecutionTime = 0.56 s  ClockTime = 1 s
max(div(Bf)) = 0  average(div(Bf)) = 0


Courant Number mean: 0.178838 max: 0.499534
deltaT = 6.21118e-05
Time = 0.0220497

alpha = 40

ExecutionTime = 0.56 s  ClockTime = 1 s
max(div(Bf)) = 0  average(div(Bf)) = 0


Courant Number mean: 0.178838 max: 0.499534
deltaT = 6.21118e-05
Time = 0.0221118

alpha = 40

ExecutionTime = 0.56 s  ClockTime = 1 s
max(div(Bf)) = 0  average(div(Bf)) = 0


Courant Number mean: 0.178838 max: 0.499534
deltaT = 6.21118e-05
Time = 0.0221739

alpha = 40

ExecutionTime = 0.56 s  ClockTime = 1 s
max(div(Bf)) = 0  average(div(Bf)) = 0


Courant Number mean: 0.178838 max: 0.499534
deltaT = 6.21118e-05
Time = 0.022236

alpha = 40

ExecutionTime = 0.56 s  ClockTime = 1 s
max(div(Bf)) = 0  average(div(Bf)) = 0


Courant Number mean: 0.178838 max: 0.499534
deltaT = 6.21118e-05
Time = 0.0222981

alpha = 40

ExecutionTime = 0.56 s  ClockTime = 1 s
max(div(Bf)) = 0  average(div(Bf)) = 0


Courant Number mean: 0.178838 max: 0.499534
deltaT = 6.21118e-05
Time = 0.0223602

alpha = 40

ExecutionTime = 0.56 s  ClockTime = 1 s
max(div(Bf)) = 0  average(div(Bf)) = 0


Courant Number mean: 0.178838 max: 0.499534
deltaT = 6.21118e-05
Time = 0.0224224

alpha = 40

ExecutionTime = 0.56 s  ClockTime = 1 s
max(div(Bf)) = 0  average(div(Bf)) = 0


Courant Number mean: 0.178838 max: 0.499534
deltaT = 6.21118e-05
Time = 0.0224845

alpha = 40

ExecutionTime = 0.56 s  ClockTime = 1 s
max(div(Bf)) = 0  average(div(Bf)) = 0


Courant Number mean: 0.178838 max: 0.499534
deltaT = 6.21118e-05
Time = 0.0225466

alpha = 40

ExecutionTime = 0.56 s  ClockTime = 1 s
max(div(Bf)) = 0  average(div(Bf)) = 0


Courant Number mean: 0.178838 max: 0.499534
deltaT = 6.21118e-05
Time = 0.0226087

alpha = 40

ExecutionTime = 0.57 s  ClockTime = 1 s
max(div(Bf)) = 0  average(div(Bf)) = 0


Courant Number mean: 0.178838 max: 0.499534
deltaT = 6.21118e-05
Time = 0.0226708

alpha = 40

ExecutionTime = 0.57 s  ClockTime = 1 s
max(div(Bf)) = 0  average(div(Bf)) = 0


Courant Number mean: 0.178838 max: 0.499534
deltaT = 6.21118e-05
Time = 0.0227329

alpha = 40

ExecutionTime = 0.57 s  ClockTime = 1 s
max(div(Bf)) = 0  average(div(Bf)) = 0


Courant Number mean: 0.178838 max: 0.499534
deltaT = 6.21118e-05
Time = 0.022795

alpha = 40

ExecutionTime = 0.57 s  ClockTime = 1 s
max(div(Bf)) = 0  average(div(Bf)) = 0


Courant Number mean: 0.178838 max: 0.499534
deltaT = 6.21118e-05
Time = 0.0228571

alpha = 40

ExecutionTime = 0.57 s  ClockTime = 1 s
max(div(Bf)) = 0  average(div(Bf)) = 0


Courant Number mean: 0.178838 max: 0.499534
deltaT = 6.21118e-05
Time = 0.0229193

alpha = 40

ExecutionTime = 0.57 s  ClockTime = 1 s
max(div(Bf)) = 0  average(div(Bf)) = 0


Courant Number mean: 0.178838 max: 0.499534
deltaT = 6.21118e-05
Time = 0.0229814

alpha = 40

ExecutionTime = 0.57 s  ClockTime = 1 s
max(div(Bf)) = 0  average(div(Bf)) = 0


Courant Number mean: 0.178838 max: 0.499534
deltaT = 6.21118e-05
Time = 0.0230435

alpha = 40

ExecutionTime = 0.58 s  ClockTime = 1 s
max(div(Bf)) = 0  average(div(Bf)) = 0


Courant Number mean: 0.178838 max: 0.499534
deltaT = 6.21118e-05
Time = 0.0231056

alpha = 40

ExecutionTime = 0.58 s  ClockTime = 1 s
max(div(Bf)) = 0  average(div(Bf)) = 0


Courant Number mean: 0.178838 max: 0.499534
deltaT = 6.21118e-05
Time = 0.0231677

alpha = 40

ExecutionTime = 0.58 s  ClockTime = 1 s
max(div(Bf)) = 0  average(div(Bf)) = 0


Courant Number mean: 0.178838 max: 0.499534
deltaT = 6.21118e-05
Time = 0.0232298

alpha = 40

ExecutionTime = 0.59 s  ClockTime = 1 s
max(div(Bf)) = 0  average(div(Bf)) = 0


Courant Number mean: 0.178838 max: 0.499534
deltaT = 6.21118e-05
Time = 0.0232919

alpha = 40

ExecutionTime = 0.59 s  ClockTime = 1 s
max(div(Bf)) = 0  average(div(Bf)) = 0


Courant Number mean: 0.178838 max: 0.499534
deltaT = 6.21118e-05
Time = 0.023354

alpha = 40

ExecutionTime = 0.59 s  ClockTime = 1 s
max(div(Bf)) = 0  average(div(Bf)) = 0


Courant Number mean: 0.178838 max: 0.499534
deltaT = 6.21118e-05
Time = 0.0234161

alpha = 40

ExecutionTime = 0.59 s  ClockTime = 1 s
max(div(Bf)) = 0  average(div(Bf)) = 0


Courant Number mean: 0.178838 max: 0.499534
deltaT = 6.21118e-05
Time = 0.0234783

alpha = 40

ExecutionTime = 0.59 s  ClockTime = 1 s
max(div(Bf)) = 0  average(div(Bf)) = 0


Courant Number mean: 0.178838 max: 0.499534
deltaT = 6.21118e-05
Time = 0.0235404

alpha = 40

ExecutionTime = 0.59 s  ClockTime = 1 s
max(div(Bf)) = 0  average(div(Bf)) = 0


Courant Number mean: 0.178838 max: 0.499534
deltaT = 6.21118e-05
Time = 0.0236025

alpha = 40

ExecutionTime = 0.59 s  ClockTime = 1 s
max(div(Bf)) = 0  average(div(Bf)) = 0


Courant Number mean: 0.178838 max: 0.499534
deltaT = 6.21118e-05
Time = 0.0236646

alpha = 40

ExecutionTime = 0.6 s  ClockTime = 1 s
max(div(Bf)) = 0  average(div(Bf)) = 0


Courant Number mean: 0.178838 max: 0.499534
deltaT = 6.21118e-05
Time = 0.0237267

alpha = 40

ExecutionTime = 0.6 s  ClockTime = 1 s
max(div(Bf)) = 0  average(div(Bf)) = 0


Courant Number mean: 0.178838 max: 0.499534
deltaT = 6.21118e-05
Time = 0.0237888

alpha = 40

ExecutionTime = 0.6 s  ClockTime = 1 s
max(div(Bf)) = 0  average(div(Bf)) = 0


Courant Number mean: 0.178838 max: 0.499534
deltaT = 6.21118e-05
Time = 0.0238509

alpha = 40

ExecutionTime = 0.6 s  ClockTime = 1 s
max(div(Bf)) = 0  average(div(Bf)) = 0


Courant Number mean: 0.178838 max: 0.499534
deltaT = 6.21118e-05
Time = 0.023913

alpha = 40

ExecutionTime = 0.6 s  ClockTime = 1 s
max(div(Bf)) = 0  average(div(Bf)) = 0


Courant Number mean: 0.178838 max: 0.499534
deltaT = 6.21118e-05
Time = 0.0239752

alpha = 40

ExecutionTime = 0.6 s  ClockTime = 1 s
max(div(Bf)) = 0  average(div(Bf)) = 0


Courant Number mean: 0.178838 max: 0.499534
deltaT = 6.21118e-05
Time = 0.0240373

alpha = 40

ExecutionTime = 0.6 s  ClockTime = 1 s
max(div(Bf)) = 0  average(div(Bf)) = 0


Courant Number mean: 0.178838 max: 0.499534
deltaT = 6.21118e-05
Time = 0.0240994

alpha = 40

ExecutionTime = 0.6 s  ClockTime = 1 s
max(div(Bf)) = 0  average(div(Bf)) = 0


Courant Number mean: 0.178838 max: 0.499534
deltaT = 6.21118e-05
Time = 0.0241615

alpha = 40

ExecutionTime = 0.61 s  ClockTime = 1 s
max(div(Bf)) = 0  average(div(Bf)) = 0


Courant Number mean: 0.178838 max: 0.499534
deltaT = 6.21118e-05
Time = 0.0242236

alpha = 40

ExecutionTime = 0.61 s  ClockTime = 1 s
max(div(Bf)) = 0  average(div(Bf)) = 0


Courant Number mean: 0.178838 max: 0.499534
deltaT = 6.21118e-05
Time = 0.0242857

alpha = 40

ExecutionTime = 0.61 s  ClockTime = 1 s
max(div(Bf)) = 0  average(div(Bf)) = 0


Courant Number mean: 0.178838 max: 0.499534
deltaT = 6.21118e-05
Time = 0.0243478

alpha = 40

ExecutionTime = 0.61 s  ClockTime = 1 s
max(div(Bf)) = 0  average(div(Bf)) = 0


Courant Number mean: 0.178838 max: 0.499534
deltaT = 6.21118e-05
Time = 0.0244099

alpha = 40

ExecutionTime = 0.61 s  ClockTime = 1 s
max(div(Bf)) = 0  average(div(Bf)) = 0


Courant Number mean: 0.178838 max: 0.499534
deltaT = 6.21118e-05
Time = 0.024472

alpha = 40

ExecutionTime = 0.61 s  ClockTime = 1 s
max(div(Bf)) = 0  average(div(Bf)) = 0


Courant Number mean: 0.178838 max: 0.499534
deltaT = 6.21118e-05
Time = 0.0245342

alpha = 40

ExecutionTime = 0.61 s  ClockTime = 1 s
max(div(Bf)) = 0  average(div(Bf)) = 0


Courant Number mean: 0.178838 max: 0.499534
deltaT = 6.21118e-05
Time = 0.0245963

alpha = 40

ExecutionTime = 0.62 s  ClockTime = 1 s
max(div(Bf)) = 0  average(div(Bf)) = 0


Courant Number mean: 0.178838 max: 0.499534
deltaT = 6.21118e-05
Time = 0.0246584

alpha = 40

ExecutionTime = 0.62 s  ClockTime = 1 s
max(div(Bf)) = 0  average(div(Bf)) = 0


Courant Number mean: 0.178838 max: 0.499534
deltaT = 6.21118e-05
Time = 0.0247205

alpha = 40

ExecutionTime = 0.62 s  ClockTime = 1 s
max(div(Bf)) = 0  average(div(Bf)) = 0


Courant Number mean: 0.178838 max: 0.499534
deltaT = 6.21118e-05
Time = 0.0247826

alpha = 40

ExecutionTime = 0.62 s  ClockTime = 1 s
max(div(Bf)) = 0  average(div(Bf)) = 0


Courant Number mean: 0.178838 max: 0.499534
deltaT = 6.21118e-05
Time = 0.0248447

alpha = 40

ExecutionTime = 0.62 s  ClockTime = 1 s
max(div(Bf)) = 0  average(div(Bf)) = 0


Courant Number mean: 0.178838 max: 0.499534
deltaT = 6.21118e-05
Time = 0.0249068

alpha = 40

ExecutionTime = 0.62 s  ClockTime = 1 s
max(div(Bf)) = 0  average(div(Bf)) = 0


Courant Number mean: 0.178838 max: 0.499534
deltaT = 6.21118e-05
Time = 0.0249689

alpha = 40

ExecutionTime = 0.62 s  ClockTime = 1 s
[...]
Time = 0.0929814

alpha = 40

ExecutionTime = 2.12 s  ClockTime = 2 s
max(div(Bf)) = 0  average(div(Bf)) = 0


Courant Number mean: 0.178838 max: 0.499534
deltaT = 6.21118e-05
Time = 0.0930435

alpha = 40

ExecutionTime = 2.13 s  ClockTime = 2 s
max(div(Bf)) = 0  average(div(Bf)) = 0


Courant Number mean: 0.178838 max: 0.499534
deltaT = 6.21118e-05
Time = 0.0931056

alpha = 40

ExecutionTime = 2.13 s  ClockTime = 2 s
max(div(Bf)) = 0  average(div(Bf)) = 0


Courant Number mean: 0.178838 max: 0.499534
deltaT = 6.21118e-05
Time = 0.0931677

alpha = 40

ExecutionTime = 2.13 s  ClockTime = 2 s
max(div(Bf)) = 0  average(div(Bf)) = 0


Courant Number mean: 0.178838 max: 0.499534
deltaT = 6.21118e-05
Time = 0.0932298

alpha = 40

ExecutionTime = 2.13 s  ClockTime = 2 s
max(div(Bf)) = 0  average(div(Bf)) = 0


Courant Number mean: 0.178838 max: 0.499534
deltaT = 6.21118e-05
Time = 0.0932919

alpha = 40

ExecutionTime = 2.14 s  ClockTime = 2 s
max(div(Bf)) = 0  average(div(Bf)) = 0


Courant Number mean: 0.178838 max: 0.499534
deltaT = 6.21118e-05
Time = 0.093354

alpha = 40

ExecutionTime = 2.14 s  ClockTime = 2 s
max(div(Bf)) = 0  average(div(Bf)) = 0


Courant Number mean: 0.178838 max: 0.499534
deltaT = 6.21118e-05
Time = 0.0934161

alpha = 40

ExecutionTime = 2.14 s  ClockTime = 2 s
max(div(Bf)) = 0  average(div(Bf)) = 0


Courant Number mean: 0.178838 max: 0.499534
deltaT = 6.21118e-05
Time = 0.0934783

alpha = 40

ExecutionTime = 2.14 s  ClockTime = 2 s
max(div(Bf)) = 0  average(div(Bf)) = 0


Courant Number mean: 0.178838 max: 0.499534
deltaT = 6.21118e-05
Time = 0.0935404

alpha = 40

ExecutionTime = 2.14 s  ClockTime = 2 s
max(div(Bf)) = 0  average(div(Bf)) = 0


Courant Number mean: 0.178838 max: 0.499534
deltaT = 6.21118e-05
Time = 0.0936025

alpha = 40

ExecutionTime = 2.14 s  ClockTime = 2 s
max(div(Bf)) = 0  average(div(Bf)) = 0


Courant Number mean: 0.178838 max: 0.499534
deltaT = 6.21118e-05
Time = 0.0936646

alpha = 40

ExecutionTime = 2.14 s  ClockTime = 2 s
max(div(Bf)) = 0  average(div(Bf)) = 0


Courant Number mean: 0.178838 max: 0.499534
deltaT = 6.21118e-05
Time = 0.0937267

alpha = 40

ExecutionTime = 2.15 s  ClockTime = 2 s
max(div(Bf)) = 0  average(div(Bf)) = 0


Courant Number mean: 0.178838 max: 0.499534
deltaT = 6.21118e-05
Time = 0.0937888

alpha = 40

ExecutionTime = 2.15 s  ClockTime = 2 s
max(div(Bf)) = 0  average(div(Bf)) = 0


Courant Number mean: 0.178838 max: 0.499534
deltaT = 6.21118e-05
Time = 0.0938509

alpha = 40

ExecutionTime = 2.15 s  ClockTime = 2 s
max(div(Bf)) = 0  average(div(Bf)) = 0


Courant Number mean: 0.178838 max: 0.499534
deltaT = 6.21118e-05
Time = 0.093913

alpha = 40

ExecutionTime = 2.15 s  ClockTime = 2 s
max(div(Bf)) = 0  average(div(Bf)) = 0


Courant Number mean: 0.178838 max: 0.499534
deltaT = 6.21118e-05
Time = 0.0939752

alpha = 40

ExecutionTime = 2.15 s  ClockTime = 2 s
max(div(Bf)) = 0  average(div(Bf)) = 0


Courant Number mean: 0.178838 max: 0.499534
deltaT = 6.21118e-05
Time = 0.0940373

alpha = 40

ExecutionTime = 2.15 s  ClockTime = 2 s
max(div(Bf)) = 0  average(div(Bf)) = 0


Courant Number mean: 0.178838 max: 0.499534
deltaT = 6.21118e-05
Time = 0.0940994

alpha = 40

ExecutionTime = 2.15 s  ClockTime = 2 s
max(div(Bf)) = 0  average(div(Bf)) = 0


Courant Number mean: 0.178838 max: 0.499534
deltaT = 6.21118e-05
Time = 0.0941615

alpha = 40

ExecutionTime = 2.15 s  ClockTime = 2 s
max(div(Bf)) = 0  average(div(Bf)) = 0


Courant Number mean: 0.178838 max: 0.499534
deltaT = 6.21118e-05
Time = 0.0942236

alpha = 40

ExecutionTime = 2.16 s  ClockTime = 2 s
max(div(Bf)) = 0  average(div(Bf)) = 0


Courant Number mean: 0.178838 max: 0.499534
deltaT = 6.21118e-05
Time = 0.0942857

alpha = 40

ExecutionTime = 2.16 s  ClockTime = 2 s
max(div(Bf)) = 0  average(div(Bf)) = 0


Courant Number mean: 0.178838 max: 0.499534
deltaT = 6.21118e-05
Time = 0.0943478

alpha = 40

ExecutionTime = 2.16 s  ClockTime = 3 s
max(div(Bf)) = 0  average(div(Bf)) = 0


Courant Number mean: 0.178838 max: 0.499534
deltaT = 6.21118e-05
Time = 0.0944099

alpha = 40

ExecutionTime = 2.16 s  ClockTime = 3 s
max(div(Bf)) = 0  average(div(Bf)) = 0


Courant Number mean: 0.178838 max: 0.499534
deltaT = 6.21118e-05
Time = 0.094472

alpha = 40

ExecutionTime = 2.16 s  ClockTime = 3 s
max(div(Bf)) = 0  average(div(Bf)) = 0


Courant Number mean: 0.178838 max: 0.499534
deltaT = 6.21118e-05
Time = 0.0945342

alpha = 40

ExecutionTime = 2.16 s  ClockTime = 3 s
max(div(Bf)) = 0  average(div(Bf)) = 0


Courant Number mean: 0.178838 max: 0.499534
deltaT = 6.21118e-05
Time = 0.0945963

alpha = 40

ExecutionTime = 2.16 s  ClockTime = 3 s
max(div(Bf)) = 0  average(div(Bf)) = 0


Courant Number mean: 0.178838 max: 0.499534
deltaT = 6.21118e-05
Time = 0.0946584

alpha = 40

ExecutionTime = 2.17 s  ClockTime = 3 s
max(div(Bf)) = 0  average(div(Bf)) = 0


Courant Number mean: 0.178838 max: 0.499534
deltaT = 6.21118e-05
Time = 0.0947205

alpha = 40

ExecutionTime = 2.17 s  ClockTime = 3 s
max(div(Bf)) = 0  average(div(Bf)) = 0


Courant Number mean: 0.178838 max: 0.499534
deltaT = 6.21118e-05
Time = 0.0947826

alpha = 40

ExecutionTime = 2.17 s  ClockTime = 3 s
max(div(Bf)) = 0  average(div(Bf)) = 0


Courant Number mean: 0.178838 max: 0.499534
deltaT = 6.21118e-05
Time = 0.0948447

alpha = 40

ExecutionTime = 2.17 s  ClockTime = 3 s
max(div(Bf)) = 0  average(div(Bf)) = 0


Courant Number mean: 0.178838 max: 0.499534
deltaT = 6.21118e-05
Time = 0.0949068

alpha = 40

ExecutionTime = 2.17 s  ClockTime = 3 s
max(div(Bf)) = 0  average(div(Bf)) = 0


Courant Number mean: 0.178838 max: 0.499534
deltaT = 6.21118e-05
Time = 0.0949689

alpha = 40

ExecutionTime = 2.17 s  ClockTime = 3 s
max(div(Bf)) = 0  average(div(Bf)) = 0


Courant Number mean: 0.178838 max: 0.499534
deltaT = 6.21118e-05
Time = 0.0950311

alpha = 40

ExecutionTime = 2.17 s  ClockTime = 3 s
max(div(Bf)) = 0  average(div(Bf)) = 0


Courant Number mean: 0.178838 max: 0.499534
deltaT = 6.21118e-05
Time = 0.0950932

alpha = 40

ExecutionTime = 2.17 s  ClockTime = 3 s
max(div(Bf)) = 0  average(div(Bf)) = 0


Courant Number mean: 0.178838 max: 0.499534
deltaT = 6.21118e-05
Time = 0.0951553

alpha = 40

ExecutionTime = 2.18 s  ClockTime = 3 s
max(div(Bf)) = 0  average(div(Bf)) = 0


Courant Number mean: 0.178838 max: 0.499534
deltaT = 6.21118e-05
Time = 0.0952174

alpha = 40

ExecutionTime = 2.18 s  ClockTime = 3 s
max(div(Bf)) = 0  average(div(Bf)) = 0


Courant Number mean: 0.178838 max: 0.499534
deltaT = 6.21118e-05
Time = 0.0952795

alpha = 40

ExecutionTime = 2.18 s  ClockTime = 3 s
max(div(Bf)) = 0  average(div(Bf)) = 0


Courant Number mean: 0.178838 max: 0.499534
deltaT = 6.21118e-05
Time = 0.0953416

alpha = 40

ExecutionTime = 2.18 s  ClockTime = 3 s
max(div(Bf)) = 0  average(div(Bf)) = 0


Courant Number mean: 0.178838 max: 0.499534
deltaT = 6.21118e-05
Time = 0.0954037

alpha = 40

ExecutionTime = 2.18 s  ClockTime = 3 s
max(div(Bf)) = 0  average(div(Bf)) = 0


Courant Number mean: 0.178838 max: 0.499534
deltaT = 6.21118e-05
Time = 0.0954658

alpha = 40

ExecutionTime = 2.18 s  ClockTime = 3 s
max(div(Bf)) = 0  average(div(Bf)) = 0


Courant Number mean: 0.178838 max: 0.499534
deltaT = 6.21118e-05
Time = 0.095528

alpha = 40

ExecutionTime = 2.18 s  ClockTime = 3 s
max(div(Bf)) = 0  average(div(Bf)) = 0


Courant Number mean: 0.178838 max: 0.499534
deltaT = 6.21118e-05
Time = 0.0955901

alpha = 40

ExecutionTime = 2.19 s  ClockTime = 3 s
max(div(Bf)) = 0  average(div(Bf)) = 0


Courant Number mean: 0.178838 max: 0.499534
deltaT = 6.21118e-05
Time = 0.0956522

alpha = 40

ExecutionTime = 2.19 s  ClockTime = 3 s
max(div(Bf)) = 0  average(div(Bf)) = 0


Courant Number mean: 0.178838 max: 0.499534
deltaT = 6.21118e-05
Time = 0.0957143

alpha = 40

ExecutionTime = 2.19 s  ClockTime = 3 s
max(div(Bf)) = 0  average(div(Bf)) = 0


Courant Number mean: 0.178838 max: 0.499534
deltaT = 6.21118e-05
Time = 0.0957764

alpha = 40

ExecutionTime = 2.19 s  ClockTime = 3 s
max(div(Bf)) = 0  average(div(Bf)) = 0


Courant Number mean: 0.178838 max: 0.499534
deltaT = 6.21118e-05
Time = 0.0958385

alpha = 40

ExecutionTime = 2.19 s  ClockTime = 3 s
max(div(Bf)) = 0  average(div(Bf)) = 0


Courant Number mean: 0.178838 max: 0.499534
deltaT = 6.21118e-05
Time = 0.0959006

alpha = 40

ExecutionTime = 2.19 s  ClockTime = 3 s
max(div(Bf)) = 0  average(div(Bf)) = 0


Courant Number mean: 0.178838 max: 0.499534
deltaT = 6.21118e-05
Time = 0.0959627

alpha = 40

ExecutionTime = 2.19 s  ClockTime = 3 s
max(div(Bf)) = 0  average(div(Bf)) = 0


Courant Number mean: 0.178838 max: 0.499534
deltaT = 6.21118e-05
Time = 0.0960248

alpha = 40

ExecutionTime = 2.19 s  ClockTime = 3 s
max(div(Bf)) = 0  average(div(Bf)) = 0


Courant Number mean: 0.178838 max: 0.499534
deltaT = 6.21118e-05
Time = 0.096087

alpha = 40

ExecutionTime = 2.2 s  ClockTime = 3 s
max(div(Bf)) = 0  average(div(Bf)) = 0


Courant Number mean: 0.178838 max: 0.499534
deltaT = 6.21118e-05
Time = 0.0961491

alpha = 40

ExecutionTime = 2.2 s  ClockTime = 3 s
max(div(Bf)) = 0  average(div(Bf)) = 0


Courant Number mean: 0.178838 max: 0.499534
deltaT = 6.21118e-05
Time = 0.0962112

alpha = 40

ExecutionTime = 2.2 s  ClockTime = 3 s
max(div(Bf)) = 0  average(div(Bf)) = 0


Courant Number mean: 0.178838 max: 0.499534
deltaT = 6.21118e-05
Time = 0.0962733

alpha = 40

ExecutionTime = 2.2 s  ClockTime = 3 s
max(div(Bf)) = 0  average(div(Bf)) = 0


Courant Number mean: 0.178838 max: 0.499534
deltaT = 6.21118e-05
Time = 0.0963354

alpha = 40

ExecutionTime = 2.2 s  ClockTime = 3 s
max(div(Bf)) = 0  average(div(Bf)) = 0


Courant Number mean: 0.178838 max: 0.499534
deltaT = 6.21118e-05
Time = 0.0963975

alpha = 40

ExecutionTime = 2.2 s  ClockTime = 3 s
max(div(Bf)) = 0  average(div(Bf)) = 0


Courant Number mean: 0.178838 max: 0.499534
deltaT = 6.21118e-05
Time = 0.0964596

alpha = 40

ExecutionTime = 2.2 s  ClockTime = 3 s
max(div(Bf)) = 0  average(div(Bf)) = 0


Courant Number mean: 0.178838 max: 0.499534
deltaT = 6.21118e-05
Time = 0.0965217

alpha = 40

ExecutionTime = 2.21 s  ClockTime = 3 s
max(div(Bf)) = 0  average(div(Bf)) = 0


Courant Number mean: 0.178838 max: 0.499534
deltaT = 6.21118e-05
Time = 0.0965839

alpha = 40

ExecutionTime = 2.21 s  ClockTime = 3 s
max(div(Bf)) = 0  average(div(Bf)) = 0


Courant Number mean: 0.178838 max: 0.499534
deltaT = 6.21118e-05
Time = 0.096646

alpha = 40

ExecutionTime = 2.21 s  ClockTime = 3 s
max(div(Bf)) = 0  average(div(Bf)) = 0


Courant Number mean: 0.178838 max: 0.499534
deltaT = 6.21118e-05
Time = 0.0967081

alpha = 40

ExecutionTime = 2.21 s  ClockTime = 3 s
max(div(Bf)) = 0  average(div(Bf)) = 0


Courant Number mean: 0.178838 max: 0.499534
deltaT = 6.21118e-05
Time = 0.0967702

alpha = 40

ExecutionTime = 2.21 s  ClockTime = 3 s
max(div(Bf)) = 0  average(div(Bf)) = 0


Courant Number mean: 0.178838 max: 0.499534
deltaT = 6.21118e-05
Time = 0.0968323

alpha = 40

ExecutionTime = 2.21 s  ClockTime = 3 s
max(div(Bf)) = 0  average(div(Bf)) = 0


Courant Number mean: 0.178838 max: 0.499534
deltaT = 6.21118e-05
Time = 0.0968944

alpha = 40

ExecutionTime = 2.21 s  ClockTime = 3 s
max(div(Bf)) = 0  average(div(Bf)) = 0


Courant Number mean: 0.178838 max: 0.499534
deltaT = 6.21118e-05
Time = 0.0969565

alpha = 40

ExecutionTime = 2.21 s  ClockTime = 3 s
max(div(Bf)) = 0  average(div(Bf)) = 0


Courant Number mean: 0.178838 max: 0.499534
deltaT = 6.21118e-05
Time = 0.0970186

alpha = 40

ExecutionTime = 2.22 s  ClockTime = 3 s
max(div(Bf)) = 0  average(div(Bf)) = 0


Courant Number mean: 0.178838 max: 0.499534
deltaT = 6.21118e-05
Time = 0.0970807

alpha = 40

ExecutionTime = 2.22 s  ClockTime = 3 s
max(div(Bf)) = 0  average(div(Bf)) = 0


Courant Number mean: 0.178838 max: 0.499534
deltaT = 6.21118e-05
Time = 0.0971429

alpha = 40

ExecutionTime = 2.22 s  ClockTime = 3 s
max(div(Bf)) = 0  average(div(Bf)) = 0


Courant Number mean: 0.178838 max: 0.499534
deltaT = 6.21118e-05
Time = 0.097205

alpha = 40

ExecutionTime = 2.22 s  ClockTime = 3 s
max(div(Bf)) = 0  average(div(Bf)) = 0


Courant Number mean: 0.178838 max: 0.499534
deltaT = 6.21118e-05
Time = 0.0972671

alpha = 40

ExecutionTime = 2.22 s  ClockTime = 3 s
max(div(Bf)) = 0  average(div(Bf)) = 0


Courant Number mean: 0.178838 max: 0.499534
deltaT = 6.21118e-05
Time = 0.0973292

alpha = 40

ExecutionTime = 2.22 s  ClockTime = 3 s
max(div(Bf)) = 0  average(div(Bf)) = 0


Courant Number mean: 0.178838 max: 0.499534
deltaT = 6.21118e-05
Time = 0.0973913

alpha = 40

ExecutionTime = 2.22 s  ClockTime = 3 s
max(div(Bf)) = 0  average(div(Bf)) = 0


Courant Number mean: 0.178838 max: 0.499534
deltaT = 6.21118e-05
Time = 0.0974534

alpha = 40

ExecutionTime = 2.23 s  ClockTime = 3 s
max(div(Bf)) = 0  average(div(Bf)) = 0


Courant Number mean: 0.178838 max: 0.499534
deltaT = 6.21118e-05
Time = 0.0975155

alpha = 40

ExecutionTime = 2.23 s  ClockTime = 3 s
max(div(Bf)) = 0  average(div(Bf)) = 0


Courant Number mean: 0.178838 max: 0.499534
deltaT = 6.21118e-05
Time = 0.0975776

alpha = 40

ExecutionTime = 2.23 s  ClockTime = 3 s
max(div(Bf)) = 0  average(div(Bf)) = 0


Courant Number mean: 0.178838 max: 0.499534
deltaT = 6.21118e-05
Time = 0.0976398

alpha = 40

ExecutionTime = 2.23 s  ClockTime = 3 s
max(div(Bf)) = 0  average(div(Bf)) = 0


Courant Number mean: 0.178838 max: 0.499534
deltaT = 6.21118e-05
Time = 0.0977019

alpha = 40

ExecutionTime = 2.23 s  ClockTime = 3 s
max(div(Bf)) = 0  average(div(Bf)) = 0


Courant Number mean: 0.178838 max: 0.499534
deltaT = 6.21118e-05
Time = 0.097764

alpha = 40

ExecutionTime = 2.23 s  ClockTime = 3 s
max(div(Bf)) = 0  average(div(Bf)) = 0


Courant Number mean: 0.178838 max: 0.499534
deltaT = 6.21118e-05
Time = 0.0978261

alpha = 40

ExecutionTime = 2.23 s  ClockTime = 3 s
max(div(Bf)) = 0  average(div(Bf)) = 0


Courant Number mean: 0.178838 max: 0.499534
deltaT = 6.21118e-05
Time = 0.0978882

alpha = 40

ExecutionTime = 2.23 s  ClockTime = 3 s
max(div(Bf)) = 0  average(div(Bf)) = 0


Courant Number mean: 0.178838 max: 0.499534
deltaT = 6.21118e-05
Time = 0.0979503

alpha = 40

ExecutionTime = 2.24 s  ClockTime = 3 s
max(div(Bf)) = 0  average(div(Bf)) = 0


Courant Number mean: 0.178838 max: 0.499534
deltaT = 6.21118e-05
Time = 0.0980124

alpha = 40

ExecutionTime = 2.24 s  ClockTime = 3 s
max(div(Bf)) = 0  average(div(Bf)) = 0


Courant Number mean: 0.178838 max: 0.499534
deltaT = 6.21118e-05
Time = 0.0980745

alpha = 40

ExecutionTime = 2.24 s  ClockTime = 3 s
max(div(Bf)) = 0  average(div(Bf)) = 0


Courant Number mean: 0.178838 max: 0.499534
deltaT = 6.21118e-05
Time = 0.0981366

alpha = 40

ExecutionTime = 2.24 s  ClockTime = 3 s
max(div(Bf)) = 0  average(div(Bf)) = 0


Courant Number mean: 0.178838 max: 0.499534
deltaT = 6.21118e-05
Time = 0.0981988

alpha = 40

ExecutionTime = 2.24 s  ClockTime = 3 s
max(div(Bf)) = 0  average(div(Bf)) = 0


Courant Number mean: 0.178838 max: 0.499534
deltaT = 6.21118e-05
Time = 0.0982609

alpha = 40

ExecutionTime = 2.24 s  ClockTime = 3 s
max(div(Bf)) = 0  average(div(Bf)) = 0


Courant Number mean: 0.178838 max: 0.499534
deltaT = 6.21118e-05
Time = 0.098323

alpha = 40

ExecutionTime = 2.24 s  ClockTime = 3 s
max(div(Bf)) = 0  average(div(Bf)) = 0


Courant Number mean: 0.178838 max: 0.499534
deltaT = 6.21118e-05
Time = 0.0983851

alpha = 40

ExecutionTime = 2.24 s  ClockTime = 3 s
max(div(Bf)) = 0  average(div(Bf)) = 0


Courant Number mean: 0.178838 max: 0.499534
deltaT = 6.21118e-05
Time = 0.0984472

alpha = 40

ExecutionTime = 2.25 s  ClockTime = 3 s
max(div(Bf)) = 0  average(div(Bf)) = 0


Courant Number mean: 0.178838 max: 0.499534
deltaT = 6.21118e-05
Time = 0.0985093

alpha = 40

ExecutionTime = 2.25 s  ClockTime = 3 s
max(div(Bf)) = 0  average(div(Bf)) = 0


Courant Number mean: 0.178838 max: 0.499534
deltaT = 6.21118e-05
Time = 0.0985714

alpha = 40

ExecutionTime = 2.25 s  ClockTime = 3 s
max(div(Bf)) = 0  average(div(Bf)) = 0


Courant Number mean: 0.178838 max: 0.499534
deltaT = 6.21118e-05
Time = 0.0986335

alpha = 40

ExecutionTime = 2.25 s  ClockTime = 3 s
max(div(Bf)) = 0  average(div(Bf)) = 0


Courant Number mean: 0.178838 max: 0.499534
deltaT = 6.21118e-05
Time = 0.0986957

alpha = 40

ExecutionTime = 2.25 s  ClockTime = 3 s
max(div(Bf)) = 0  average(div(Bf)) = 0


Courant Number mean: 0.178838 max: 0.499534
deltaT = 6.21118e-05
Time = 0.0987578

alpha = 40

ExecutionTime = 2.25 s  ClockTime = 3 s
max(div(Bf)) = 0  average(div(Bf)) = 0


Courant Number mean: 0.178838 max: 0.499534
deltaT = 6.21118e-05
Time = 0.0988199

alpha = 40

ExecutionTime = 2.25 s  ClockTime = 3 s
max(div(Bf)) = 0  average(div(Bf)) = 0


Courant Number mean: 0.178838 max: 0.499534
deltaT = 6.21118e-05
Time = 0.098882

alpha = 40

ExecutionTime = 2.26 s  ClockTime = 3 s
max(div(Bf)) = 0  average(div(Bf)) = 0


Courant Number mean: 0.178838 max: 0.499534
deltaT = 6.21118e-05
Time = 0.0989441

alpha = 40

ExecutionTime = 2.26 s  ClockTime = 3 s
max(div(Bf)) = 0  average(div(Bf)) = 0


Courant Number mean: 0.178838 max: 0.499534
deltaT = 6.21118e-05
Time = 0.0990062

alpha = 40

ExecutionTime = 2.26 s  ClockTime = 3 s
max(div(Bf)) = 0  average(div(Bf)) = 0


Courant Number mean: 0.178838 max: 0.499534
deltaT = 6.21118e-05
Time = 0.0990683

alpha = 40

ExecutionTime = 2.26 s  ClockTime = 3 s
max(div(Bf)) = 0  average(div(Bf)) = 0


Courant Number mean: 0.178838 max: 0.499534
deltaT = 6.21118e-05
Time = 0.0991304

alpha = 40

ExecutionTime = 2.26 s  ClockTime = 3 s
max(div(Bf)) = 0  average(div(Bf)) = 0


Courant Number mean: 0.178838 max: 0.499534
deltaT = 6.21118e-05
Time = 0.0991925

alpha = 40

ExecutionTime = 2.26 s  ClockTime = 3 s
max(div(Bf)) = 0  average(div(Bf)) = 0


Courant Number mean: 0.178838 max: 0.499534
deltaT = 6.21118e-05
Time = 0.0992547

alpha = 40

ExecutionTime = 2.26 s  ClockTime = 3 s
max(div(Bf)) = 0  average(div(Bf)) = 0


Courant Number mean: 0.178838 max: 0.499534
deltaT = 6.21118e-05
Time = 0.0993168

alpha = 40

ExecutionTime = 2.26 s  ClockTime = 3 s
max(div(Bf)) = 0  average(div(Bf)) = 0


Courant Number mean: 0.178838 max: 0.499534
deltaT = 6.21118e-05
Time = 0.0993789

alpha = 40

ExecutionTime = 2.27 s  ClockTime = 3 s
max(div(Bf)) = 0  average(div(Bf)) = 0


Courant Number mean: 0.178838 max: 0.499534
deltaT = 6.21118e-05
Time = 0.099441

alpha = 40

ExecutionTime = 2.27 s  ClockTime = 3 s
max(div(Bf)) = 0  average(div(Bf)) = 0


Courant Number mean: 0.178838 max: 0.499534
deltaT = 6.21118e-05
Time = 0.0995031

alpha = 40

ExecutionTime = 2.27 s  ClockTime = 3 s
max(div(Bf)) = 0  average(div(Bf)) = 0


Courant Number mean: 0.178838 max: 0.499534
deltaT = 6.21118e-05
Time = 0.0995652

alpha = 40

ExecutionTime = 2.27 s  ClockTime = 3 s
max(div(Bf)) = 0  average(div(Bf)) = 0


Courant Number mean: 0.178838 max: 0.499534
deltaT = 6.21118e-05
Time = 0.0996273

alpha = 40

ExecutionTime = 2.27 s  ClockTime = 3 s
max(div(Bf)) = 0  average(div(Bf)) = 0


Courant Number mean: 0.178838 max: 0.499534
deltaT = 6.21118e-05
Time = 0.0996894

alpha = 40

ExecutionTime = 2.27 s  ClockTime = 3 s
max(div(Bf)) = 0  average(div(Bf)) = 0


Courant Number mean: 0.178838 max: 0.499534
deltaT = 6.21118e-05
Time = 0.0997516

alpha = 40

ExecutionTime = 2.27 s  ClockTime = 3 s
max(div(Bf)) = 0  average(div(Bf)) = 0


Courant Number mean: 0.178838 max: 0.499534
deltaT = 6.21118e-05
Time = 0.0998137

alpha = 40

ExecutionTime = 2.28 s  ClockTime = 3 s
max(div(Bf)) = 0  average(div(Bf)) = 0


Courant Number mean: 0.178838 max: 0.499534
deltaT = 6.21118e-05
Time = 0.0998758

alpha = 40

ExecutionTime = 2.28 s  ClockTime = 3 s
max(div(Bf)) = 0  average(div(Bf)) = 0


Courant Number mean: 0.178838 max: 0.499534
deltaT = 6.21118e-05
Time = 0.0999379

alpha = 40

ExecutionTime = 2.28 s  ClockTime = 3 s
max(div(Bf)) = 0  average(div(Bf)) = 0


Courant Number mean: 0.178838 max: 0.499534
deltaT = 6.21118e-05
Time = 0.1

alpha = 40

ExecutionTime = 2.28 s  ClockTime = 3 s
max(div(Bf)) = 0  average(div(Bf)) = 0


End

