/*---------------------------------------------------------------------------*\
| =========                 |                                                 |
| \\      /  F ield         | OpenFOAM: The Open Source CFD Toolbox           |
|  \\    /   O peration     | Version:  2.2.x                                 |
|   \\  /    A nd           | Web:      www.OpenFOAM.org                      |
|    \\/     M anipulation  |                                                 |
\*---------------------------------------------------------------------------*/
Build  : 2.2.x-1ef4d132e582
Exec   : clusterMHDFoam
Date   : Feb 13 2015
Time   : 17:27:59
Host   : "compute-0-4.local"
PID    : 12666
Case   : /home/xisto/OpenFOAM/xisto-2.2.x/run/ShockTUBE-Ryu/5a
nProcs : 1
sigFpe : Enabling floating point exception trapping (FOAM_SIGFPE).
fileModificationChecking : Monitoring run-time modified files using timeStampMaster
allowSystemOperations : Disallowing user-supplied system call operations

// * * * * * * * * * * * * * * * * * * * * * * * * * * * * * * * * * * * * * //
Create time

Create mesh for time = 0

fluxScheme is: Kurganov-MHD
AUSMupPlus and Kurganov not working with MHD

Reading thermodynamicProperties

Reading transportProperties

Reading field p

Reading field T

Reading field U

Reading field B components

Courant Number mean: 0 max: 0

Starting time loop

Courant Number mean: 1.37353e-05 max: 3.74637e-05
deltaT = 1.2e-08
Time = 1.2e-08

diagonal:  Solving for rho, Initial residual = 0, Final residual = 0, No Iterations 0
diagonal:  Solving for By, Initial residual = 0, Final residual = 0, No Iterations 0
diagonal:  Solving for Bz, Initial residual = 0, Final residual = 0, No Iterations 0
diagonal:  Solving for rhoUx, Initial residual = 0, Final residual = 0, No Iterations 0
diagonal:  Solving for rhoUy, Initial residual = 0, Final residual = 0, No Iterations 0
diagonal:  Solving for rhoUz, Initial residual = 0, Final residual = 0, No Iterations 0
diagonal:  Solving for rhoE, Initial residual = 0, Final residual = 0, No Iterations 0
ExecutionTime = 0.02 s  ClockTime = 0 s
max(div(Bf)) = 0  average(div(Bf)) = 0


Courant Number mean: 1.64824e-05 max: 4.49564e-05
deltaT = 1.44e-08
Time = 2.64e-08

diagonal:  Solving for rho, Initial residual = 0, Final residual = 0, No Iterations 0
diagonal:  Solving for By, Initial residual = 0, Final residual = 0, No Iterations 0
diagonal:  Solving for Bz, Initial residual = 0, Final residual = 0, No Iterations 0
diagonal:  Solving for rhoUx, Initial residual = 0, Final residual = 0, No Iterations 0
diagonal:  Solving for rhoUy, Initial residual = 0, Final residual = 0, No Iterations 0
diagonal:  Solving for rhoUz, Initial residual = 0, Final residual = 0, No Iterations 0
diagonal:  Solving for rhoE, Initial residual = 0, Final residual = 0, No Iterations 0
ExecutionTime = 0.02 s  ClockTime = 0 s
max(div(Bf)) = 0  average(div(Bf)) = 0


Courant Number mean: 1.97788e-05 max: 5.39476e-05
deltaT = 1.72799e-08
Time = 4.36799e-08

diagonal:  Solving for rho, Initial residual = 0, Final residual = 0, No Iterations 0
diagonal:  Solving for By, Initial residual = 0, Final residual = 0, No Iterations 0
diagonal:  Solving for Bz, Initial residual = 0, Final residual = 0, No Iterations 0
diagonal:  Solving for rhoUx, Initial residual = 0, Final residual = 0, No Iterations 0
diagonal:  Solving for rhoUy, Initial residual = 0, Final residual = 0, No Iterations 0
diagonal:  Solving for rhoUz, Initial residual = 0, Final residual = 0, No Iterations 0
diagonal:  Solving for rhoE, Initial residual = 0, Final residual = 0, No Iterations 0
ExecutionTime = 0.02 s  ClockTime = 0 s
max(div(Bf)) = 0  average(div(Bf)) = 0


Courant Number mean: 2.37345e-05 max: 6.4737e-05
deltaT = 2.07359e-08
Time = 6.44158e-08

diagonal:  Solving for rho, Initial residual = 0, Final residual = 0, No Iterations 0
diagonal:  Solving for By, Initial residual = 0, Final residual = 0, No Iterations 0
diagonal:  Solving for Bz, Initial residual = 0, Final residual = 0, No Iterations 0
diagonal:  Solving for rhoUx, Initial residual = 0, Final residual = 0, No Iterations 0
diagonal:  Solving for rhoUy, Initial residual = 0, Final residual = 0, No Iterations 0
diagonal:  Solving for rhoUz, Initial residual = 0, Final residual = 0, No Iterations 0
diagonal:  Solving for rhoE, Initial residual = 0, Final residual = 0, No Iterations 0
ExecutionTime = 0.02 s  ClockTime = 0 s
max(div(Bf)) = 0  average(div(Bf)) = 0


Courant Number mean: 2.84814e-05 max: 7.76843e-05
deltaT = 2.48831e-08
Time = 8.92989e-08

diagonal:  Solving for rho, Initial residual = 0, Final residual = 0, No Iterations 0
diagonal:  Solving for By, Initial residual = 0, Final residual = 0, No Iterations 0
diagonal:  Solving for Bz, Initial residual = 0, Final residual = 0, No Iterations 0
diagonal:  Solving for rhoUx, Initial residual = 0, Final residual = 0, No Iterations 0
diagonal:  Solving for rhoUy, Initial residual = 0, Final residual = 0, No Iterations 0
diagonal:  Solving for rhoUz, Initial residual = 0, Final residual = 0, No Iterations 0
diagonal:  Solving for rhoE, Initial residual = 0, Final residual = 0, No Iterations 0
ExecutionTime = 0.03 s  ClockTime = 0 s
max(div(Bf)) = 0  average(div(Bf)) = 0


Courant Number mean: 3.41776e-05 max: 9.32211e-05
deltaT = 2.98597e-08
Time = 1.19159e-07

diagonal:  Solving for rho, Initial residual = 0, Final residual = 0, No Iterations 0
diagonal:  Solving for By, Initial residual = 0, Final residual = 0, No Iterations 0
diagonal:  Solving for Bz, Initial residual = 0, Final residual = 0, No Iterations 0
diagonal:  Solving for rhoUx, Initial residual = 0, Final residual = 0, No Iterations 0
diagonal:  Solving for rhoUy, Initial residual = 0, Final residual = 0, No Iterations 0
diagonal:  Solving for rhoUz, Initial residual = 0, Final residual = 0, No Iterations 0
diagonal:  Solving for rhoE, Initial residual = 0, Final residual = 0, No Iterations 0
ExecutionTime = 0.03 s  ClockTime = 0 s
max(div(Bf)) = 0  average(div(Bf)) = 0


Courant Number mean: 4.10131e-05 max: 0.000111865
deltaT = 3.58316e-08
Time = 1.5499e-07

diagonal:  Solving for rho, Initial residual = 0, Final residual = 0, No Iterations 0
diagonal:  Solving for By, Initial residual = 0, Final residual = 0, No Iterations 0
diagonal:  Solving for Bz, Initial residual = 0, Final residual = 0, No Iterations 0
diagonal:  Solving for rhoUx, Initial residual = 0, Final residual = 0, No Iterations 0
diagonal:  Solving for rhoUy, Initial residual = 0, Final residual = 0, No Iterations 0
diagonal:  Solving for rhoUz, Initial residual = 0, Final residual = 0, No Iterations 0
diagonal:  Solving for rhoE, Initial residual = 0, Final residual = 0, No Iterations 0
ExecutionTime = 0.03 s  ClockTime = 0 s
max(div(Bf)) = 0  average(div(Bf)) = 0


Courant Number mean: 4.92157e-05 max: 0.000134238
deltaT = 4.29979e-08
Time = 1.97988e-07

diagonal:  Solving for rho, Initial residual = 0, Final residual = 0, No Iterations 0
diagonal:  Solving for By, Initial residual = 0, Final residual = 0, No Iterations 0
diagonal:  Solving for Bz, Initial residual = 0, Final residual = 0, No Iterations 0
diagonal:  Solving for rhoUx, Initial residual = 0, Final residual = 0, No Iterations 0
diagonal:  Solving for rhoUy, Initial residual = 0, Final residual = 0, No Iterations 0
diagonal:  Solving for rhoUz, Initial residual = 0, Final residual = 0, No Iterations 0
diagonal:  Solving for rhoE, Initial residual = 0, Final residual = 0, No Iterations 0
ExecutionTime = 0.03 s  ClockTime = 0 s
max(div(Bf)) = 0  average(div(Bf)) = 0


Courant Number mean: 5.90588e-05 max: 0.000161086
deltaT = 5.15972e-08
Time = 2.49585e-07

diagonal:  Solving for rho, Initial residual = 0, Final residual = 0, No Iterations 0
diagonal:  Solving for By, Initial residual = 0, Final residual = 0, No Iterations 0
diagonal:  Solving for Bz, Initial residual = 0, Final residual = 0, No Iterations 0
diagonal:  Solving for rhoUx, Initial residual = 0, Final residual = 0, No Iterations 0
diagonal:  Solving for rhoUy, Initial residual = 0, Final residual = 0, No Iterations 0
diagonal:  Solving for rhoUz, Initial residual = 0, Final residual = 0, No Iterations 0
diagonal:  Solving for rhoE, Initial residual = 0, Final residual = 0, No Iterations 0
ExecutionTime = 0.04 s  ClockTime = 0 s
max(div(Bf)) = 0  average(div(Bf)) = 0


Courant Number mean: 7.08702e-05 max: 0.000193302
deltaT = 6.19164e-08
Time = 3.11502e-07

diagonal:  Solving for rho, Initial residual = 0, Final residual = 0, No Iterations 0
diagonal:  Solving for By, Initial residual = 0, Final residual = 0, No Iterations 0
diagonal:  Solving for Bz, Initial residual = 0, Final residual = 0, No Iterations 0
diagonal:  Solving for rhoUx, Initial residual = 0, Final residual = 0, No Iterations 0
diagonal:  Solving for rhoUy, Initial residual = 0, Final residual = 0, No Iterations 0
diagonal:  Solving for rhoUz, Initial residual = 0, Final residual = 0, No Iterations 0
diagonal:  Solving for rhoE, Initial residual = 0, Final residual = 0, No Iterations 0
ExecutionTime = 0.04 s  ClockTime = 0 s
max(div(Bf)) = 0  average(div(Bf)) = 0


Courant Number mean: 8.50438e-05 max: 0.000231962
deltaT = 7.42996e-08
Time = 3.85801e-07

diagonal:  Solving for rho, Initial residual = 0, Final residual = 0, No Iterations 0
diagonal:  Solving for By, Initial residual = 0, Final residual = 0, No Iterations 0
diagonal:  Solving for Bz, Initial residual = 0, Final residual = 0, No Iterations 0
diagonal:  Solving for rhoUx, Initial residual = 0, Final residual = 0, No Iterations 0
diagonal:  Solving for rhoUy, Initial residual = 0, Final residual = 0, No Iterations 0
diagonal:  Solving for rhoUz, Initial residual = 0, Final residual = 0, No Iterations 0
diagonal:  Solving for rhoE, Initial residual = 0, Final residual = 0, No Iterations 0
ExecutionTime = 0.04 s  ClockTime = 0 s
max(div(Bf)) = 0  average(div(Bf)) = 0


Courant Number mean: 0.000102052 max: 0.000278354
deltaT = 8.91589e-08
Time = 4.7496e-07

diagonal:  Solving for rho, Initial residual = 0, Final residual = 0, No Iterations 0
diagonal:  Solving for By, Initial residual = 0, Final residual = 0, No Iterations 0
diagonal:  Solving for Bz, Initial residual = 0, Final residual = 0, No Iterations 0
diagonal:  Solving for rhoUx, Initial residual = 0, Final residual = 0, No Iterations 0
diagonal:  Solving for rhoUy, Initial residual = 0, Final residual = 0, No Iterations 0
diagonal:  Solving for rhoUz, Initial residual = 0, Final residual = 0, No Iterations 0
diagonal:  Solving for rhoE, Initial residual = 0, Final residual = 0, No Iterations 0
ExecutionTime = 0.04 s  ClockTime = 0 s
max(div(Bf)) = 0  average(div(Bf)) = 0


Courant Number mean: 0.000122462 max: 0.000334022
deltaT = 1.0699e-07
Time = 5.8195e-07

diagonal:  Solving for rho, Initial residual = 0, Final residual = 0, No Iterations 0
diagonal:  Solving for By, Initial residual = 0, Final residual = 0, No Iterations 0
diagonal:  Solving for Bz, Initial residual = 0, Final residual = 0, No Iterations 0
diagonal:  Solving for rhoUx, Initial residual = 0, Final residual = 0, No Iterations 0
diagonal:  Solving for rhoUy, Initial residual = 0, Final residual = 0, No Iterations 0
diagonal:  Solving for rhoUz, Initial residual = 0, Final residual = 0, No Iterations 0
diagonal:  Solving for rhoE, Initial residual = 0, Final residual = 0, No Iterations 0
ExecutionTime = 0.04 s  ClockTime = 0 s
max(div(Bf)) = 0  average(div(Bf)) = 0


Courant Number mean: 0.000146953 max: 0.000400825
deltaT = 1.28387e-07
Time = 7.10337e-07

diagonal:  Solving for rho, Initial residual = 0, Final residual = 0, No Iterations 0
diagonal:  Solving for By, Initial residual = 0, Final residual = 0, No Iterations 0
diagonal:  Solving for Bz, Initial residual = 0, Final residual = 0, No Iterations 0
diagonal:  Solving for rhoUx, Initial residual = 0, Final residual = 0, No Iterations 0
diagonal:  Solving for rhoUy, Initial residual = 0, Final residual = 0, No Iterations 0
diagonal:  Solving for rhoUz, Initial residual = 0, Final residual = 0, No Iterations 0
diagonal:  Solving for rhoE, Initial residual = 0, Final residual = 0, No Iterations 0
ExecutionTime = 0.05 s  ClockTime = 0 s
max(div(Bf)) = 0  average(div(Bf)) = 0


Courant Number mean: 0.000176342 max: 0.000480985
deltaT = 1.54063e-07
Time = 8.644e-07

diagonal:  Solving for rho, Initial residual = 0, Final residual = 0, No Iterations 0
diagonal:  Solving for By, Initial residual = 0, Final residual = 0, No Iterations 0
diagonal:  Solving for Bz, Initial residual = 0, Final residual = 0, No Iterations 0
diagonal:  Solving for rhoUx, Initial residual = 0, Final residual = 0, No Iterations 0
diagonal:  Solving for rhoUy, Initial residual = 0, Final residual = 0, No Iterations 0
diagonal:  Solving for rhoUz, Initial residual = 0, Final residual = 0, No Iterations 0
diagonal:  Solving for rhoE, Initial residual = 0, Final residual = 0, No Iterations 0
ExecutionTime = 0.05 s  ClockTime = 0 s
max(div(Bf)) = 0  average(div(Bf)) = 0


Courant Number mean: 0.000211608 max: 0.000577176
deltaT = 1.84875e-07
Time = 1.04927e-06

diagonal:  Solving for rho, Initial residual = 0, Final residual = 0, No Iterations 0
diagonal:  Solving for By, Initial residual = 0, Final residual = 0, No Iterations 0
diagonal:  Solving for Bz, Initial residual = 0, Final residual = 0, No Iterations 0
diagonal:  Solving for rhoUx, Initial residual = 0, Final residual = 0, No Iterations 0
diagonal:  Solving for rhoUy, Initial residual = 0, Final residual = 0, No Iterations 0
diagonal:  Solving for rhoUz, Initial residual = 0, Final residual = 0, No Iterations 0
diagonal:  Solving for rhoE, Initial residual = 0, Final residual = 0, No Iterations 0
ExecutionTime = 0.05 s  ClockTime = 0 s
max(div(Bf)) = 0  average(div(Bf)) = 0


Courant Number mean: 0.000253928 max: 0.000692609
deltaT = 2.21849e-07
Time = 1.27112e-06

diagonal:  Solving for rho, Initial residual = 0, Final residual = 0, No Iterations 0
diagonal:  Solving for By, Initial residual = 0, Final residual = 0, No Iterations 0
diagonal:  Solving for Bz, Initial residual = 0, Final residual = 0, No Iterations 0
diagonal:  Solving for rhoUx, Initial residual = 0, Final residual = 0, No Iterations 0
diagonal:  Solving for rhoUy, Initial residual = 0, Final residual = 0, No Iterations 0
diagonal:  Solving for rhoUz, Initial residual = 0, Final residual = 0, No Iterations 0
diagonal:  Solving for rhoE, Initial residual = 0, Final residual = 0, No Iterations 0
ExecutionTime = 0.05 s  ClockTime = 0 s
max(div(Bf)) = 0  average(div(Bf)) = 0


Courant Number mean: 0.000304711 max: 0.000831127
deltaT = 2.66214e-07
Time = 1.53734e-06

diagonal:  Solving for rho, Initial residual = 0, Final residual = 0, No Iterations 0
diagonal:  Solving for By, Initial residual = 0, Final residual = 0, No Iterations 0
diagonal:  Solving for Bz, Initial residual = 0, Final residual = 0, No Iterations 0
diagonal:  Solving for rhoUx, Initial residual = 0, Final residual = 0, No Iterations 0
diagonal:  Solving for rhoUy, Initial residual = 0, Final residual = 0, No Iterations 0
diagonal:  Solving for rhoUz, Initial residual = 0, Final residual = 0, No Iterations 0
diagonal:  Solving for rhoE, Initial residual = 0, Final residual = 0, No Iterations 0
ExecutionTime = 0.06 s  ClockTime = 0 s
max(div(Bf)) = 0  average(div(Bf)) = 0


Courant Number mean: 0.000365646 max: 0.000997335
deltaT = 3.1945e-07
Time = 1.85679e-06

diagonal:  Solving for rho, Initial residual = 0, Final residual = 0, No Iterations 0
diagonal:  Solving for By, Initial residual = 0, Final residual = 0, No Iterations 0
diagonal:  Solving for Bz, Initial residual = 0, Final residual = 0, No Iterations 0
diagonal:  Solving for rhoUx, Initial residual = 0, Final residual = 0, No Iterations 0
diagonal:  Solving for rhoUy, Initial residual = 0, Final residual = 0, No Iterations 0
diagonal:  Solving for rhoUz, Initial residual = 0, Final residual = 0, No Iterations 0
diagonal:  Solving for rhoE, Initial residual = 0, Final residual = 0, No Iterations 0
ExecutionTime = 0.06 s  ClockTime = 0 s
max(div(Bf)) = 0  average(div(Bf)) = 0


Courant Number mean: 0.000438764 max: 0.00119678
deltaT = 3.83335e-07
Time = 2.24012e-06

diagonal:  Solving for rho, Initial residual = 0, Final residual = 0, No Iterations 0
diagonal:  Solving for By, Initial residual = 0, Final residual = 0, No Iterations 0
diagonal:  Solving for Bz, Initial residual = 0, Final residual = 0, No Iterations 0
diagonal:  Solving for rhoUx, Initial residual = 0, Final residual = 0, No Iterations 0
diagonal:  Solving for rhoUy, Initial residual = 0, Final residual = 0, No Iterations 0
diagonal:  Solving for rhoUz, Initial residual = 0, Final residual = 0, No Iterations 0
diagonal:  Solving for rhoE, Initial residual = 0, Final residual = 0, No Iterations 0
ExecutionTime = 0.06 s  ClockTime = 0 s
max(div(Bf)) = 0  average(div(Bf)) = 0


Courant Number mean: 0.000526508 max: 0.00143611
deltaT = 4.59984e-07
Time = 2.70011e-06

diagonal:  Solving for rho, Initial residual = 0, Final residual = 0, No Iterations 0
diagonal:  Solving for By, Initial residual = 0, Final residual = 0, No Iterations 0
diagonal:  Solving for Bz, Initial residual = 0, Final residual = 0, No Iterations 0
diagonal:  Solving for rhoUx, Initial residual = 0, Final residual = 0, No Iterations 0
diagonal:  Solving for rhoUy, Initial residual = 0, Final residual = 0, No Iterations 0
diagonal:  Solving for rhoUz, Initial residual = 0, Final residual = 0, No Iterations 0
diagonal:  Solving for rhoE, Initial residual = 0, Final residual = 0, No Iterations 0
ExecutionTime = 0.06 s  ClockTime = 0 s
max(div(Bf)) = 0  average(div(Bf)) = 0


Courant Number mean: 0.000631781 max: 0.00172327
deltaT = 5.51971e-07
Time = 3.25208e-06

diagonal:  Solving for rho, Initial residual = 0, Final residual = 0, No Iterations 0
diagonal:  Solving for By, Initial residual = 0, Final residual = 0, No Iterations 0
diagonal:  Solving for Bz, Initial residual = 0, Final residual = 0, No Iterations 0
diagonal:  Solving for rhoUx, Initial residual = 0, Final residual = 0, No Iterations 0
diagonal:  Solving for rhoUy, Initial residual = 0, Final residual = 0, No Iterations 0
diagonal:  Solving for rhoUz, Initial residual = 0, Final residual = 0, No Iterations 0
diagonal:  Solving for rhoE, Initial residual = 0, Final residual = 0, No Iterations 0
ExecutionTime = 0.06 s  ClockTime = 0 s
max(div(Bf)) = 0  average(div(Bf)) = 0


Courant Number mean: 0.000758119 max: 0.00206789
deltaT = 6.62343e-07
Time = 3.91442e-06

diagonal:  Solving for rho, Initial residual = 0, Final residual = 0, No Iterations 0
diagonal:  Solving for By, Initial residual = 0, Final residual = 0, No Iterations 0
diagonal:  Solving for Bz, Initial residual = 0, Final residual = 0, No Iterations 0
diagonal:  Solving for rhoUx, Initial residual = 0, Final residual = 0, No Iterations 0
diagonal:  Solving for rhoUy, Initial residual = 0, Final residual = 0, No Iterations 0
diagonal:  Solving for rhoUz, Initial residual = 0, Final residual = 0, No Iterations 0
diagonal:  Solving for rhoE, Initial residual = 0, Final residual = 0, No Iterations 0
ExecutionTime = 0.07 s  ClockTime = 0 s
max(div(Bf)) = 0  average(div(Bf)) = 0


Courant Number mean: 0.000909706 max: 0.00248138
deltaT = 7.94791e-07
Time = 4.70921e-06

diagonal:  Solving for rho, Initial residual = 0, Final residual = 0, No Iterations 0
diagonal:  Solving for By, Initial residual = 0, Final residual = 0, No Iterations 0
diagonal:  Solving for Bz, Initial residual = 0, Final residual = 0, No Iterations 0
diagonal:  Solving for rhoUx, Initial residual = 0, Final residual = 0, No Iterations 0
diagonal:  Solving for rhoUy, Initial residual = 0, Final residual = 0, No Iterations 0
diagonal:  Solving for rhoUz, Initial residual = 0, Final residual = 0, No Iterations 0
diagonal:  Solving for rhoE, Initial residual = 0, Final residual = 0, No Iterations 0
ExecutionTime = 0.07 s  ClockTime = 0 s
max(div(Bf)) = 0  average(div(Bf)) = 0


Courant Number mean: 0.00109161 max: 0.00297758
deltaT = 9.53658e-07
Time = 5.66287e-06

diagonal:  Solving for rho, Initial residual = 0, Final residual = 0, No Iterations 0
diagonal:  Solving for By, Initial residual = 0, Final residual = 0, No Iterations 0
diagonal:  Solving for Bz, Initial residual = 0, Final residual = 0, No Iterations 0
diagonal:  Solving for rhoUx, Initial residual = 0, Final residual = 0, No Iterations 0
diagonal:  Solving for rhoUy, Initial residual = 0, Final residual = 0, No Iterations 0
diagonal:  Solving for rhoUz, Initial residual = 0, Final residual = 0, No Iterations 0
diagonal:  Solving for rhoE, Initial residual = 0, Final residual = 0, No Iterations 0
ExecutionTime = 0.07 s  ClockTime = 0 s
max(div(Bf)) = 0  average(div(Bf)) = 0


Courant Number mean: 0.00130979 max: 0.00357275
deltaT = 1.1443e-06
Time = 6.80717e-06

diagonal:  Solving for rho, Initial residual = 0, Final residual = 0, No Iterations 0
diagonal:  Solving for By, Initial residual = 0, Final residual = 0, No Iterations 0
diagonal:  Solving for Bz, Initial residual = 0, Final residual = 0, No Iterations 0
diagonal:  Solving for rhoUx, Initial residual = 0, Final residual = 0, No Iterations 0
diagonal:  Solving for rhoUy, Initial residual = 0, Final residual = 0, No Iterations 0
diagonal:  Solving for rhoUz, Initial residual = 0, Final residual = 0, No Iterations 0
diagonal:  Solving for rhoE, Initial residual = 0, Final residual = 0, No Iterations 0
ExecutionTime = 0.07 s  ClockTime = 0 s
max(div(Bf)) = 0  average(div(Bf)) = 0


Courant Number mean: 0.00157161 max: 0.00428698
deltaT = 1.37307e-06
Time = 8.18024e-06

diagonal:  Solving for rho, Initial residual = 0, Final residual = 0, No Iterations 0
diagonal:  Solving for By, Initial residual = 0, Final residual = 0, No Iterations 0
diagonal:  Solving for Bz, Initial residual = 0, Final residual = 0, No Iterations 0
diagonal:  Solving for rhoUx, Initial residual = 0, Final residual = 0, No Iterations 0
diagonal:  Solving for rhoUy, Initial residual = 0, Final residual = 0, No Iterations 0
diagonal:  Solving for rhoUz, Initial residual = 0, Final residual = 0, No Iterations 0
diagonal:  Solving for rhoE, Initial residual = 0, Final residual = 0, No Iterations 0
ExecutionTime = 0.07 s  ClockTime = 0 s
max(div(Bf)) = 0  average(div(Bf)) = 0


Courant Number mean: 0.00188578 max: 0.00514402
deltaT = 1.64746e-06
Time = 9.8277e-06

diagonal:  Solving for rho, Initial residual = 0, Final residual = 0, No Iterations 0
diagonal:  Solving for By, Initial residual = 0, Final residual = 0, No Iterations 0
diagonal:  Solving for Bz, Initial residual = 0, Final residual = 0, No Iterations 0
diagonal:  Solving for rhoUx, Initial residual = 0, Final residual = 0, No Iterations 0
diagonal:  Solving for rhoUy, Initial residual = 0, Final residual = 0, No Iterations 0
diagonal:  Solving for rhoUz, Initial residual = 0, Final residual = 0, No Iterations 0
diagonal:  Solving for rhoE, Initial residual = 0, Final residual = 0, No Iterations 0
ExecutionTime = 0.08 s  ClockTime = 0 s
max(div(Bf)) = 0  average(div(Bf)) = 0


Courant Number mean: 0.00226259 max: 0.00617197
deltaT = 1.97669e-06
Time = 1.18044e-05

diagonal:  Solving for rho, Initial residual = 0, Final residual = 0, No Iterations 0
diagonal:  Solving for By, Initial residual = 0, Final residual = 0, No Iterations 0
diagonal:  Solving for Bz, Initial residual = 0, Final residual = 0, No Iterations 0
diagonal:  Solving for rhoUx, Initial residual = 0, Final residual = 0, No Iterations 0
diagonal:  Solving for rhoUy, Initial residual = 0, Final residual = 0, No Iterations 0
diagonal:  Solving for rhoUz, Initial residual = 0, Final residual = 0, No Iterations 0
diagonal:  Solving for rhoE, Initial residual = 0, Final residual = 0, No Iterations 0
ExecutionTime = 0.08 s  ClockTime = 0 s
max(div(Bf)) = 0  average(div(Bf)) = 0


Courant Number mean: 0.0027147 max: 0.00740539
deltaT = 2.37193e-06
Time = 1.41763e-05

diagonal:  Solving for rho, Initial residual = 0, Final residual = 0, No Iterations 0
diagonal:  Solving for By, Initial residual = 0, Final residual = 0, No Iterations 0
diagonal:  Solving for Bz, Initial residual = 0, Final residual = 0, No Iterations 0
diagonal:  Solving for rhoUx, Initial residual = 0, Final residual = 0, No Iterations 0
diagonal:  Solving for rhoUy, Initial residual = 0, Final residual = 0, No Iterations 0
diagonal:  Solving for rhoUz, Initial residual = 0, Final residual = 0, No Iterations 0
diagonal:  Solving for rhoE, Initial residual = 0, Final residual = 0, No Iterations 0
ExecutionTime = 0.08 s  ClockTime = 0 s
max(div(Bf)) = 0  average(div(Bf)) = 0


Courant Number mean: 0.00325745 max: 0.00888612
deltaT = 2.84577e-06
Time = 1.70221e-05

diagonal:  Solving for rho, Initial residual = 0, Final residual = 0, No Iterations 0
diagonal:  Solving for By, Initial residual = 0, Final residual = 0, No Iterations 0
diagonal:  Solving for Bz, Initial residual = 0, Final residual = 0, No Iterations 0
diagonal:  Solving for rhoUx, Initial residual = 0, Final residual = 0, No Iterations 0
diagonal:  Solving for rhoUy, Initial residual = 0, Final residual = 0, No Iterations 0
diagonal:  Solving for rhoUz, Initial residual = 0, Final residual = 0, No Iterations 0
diagonal:  Solving for rhoE, Initial residual = 0, Final residual = 0, No Iterations 0
ExecutionTime = 0.08 s  ClockTime = 0 s
max(div(Bf)) = 0  average(div(Bf)) = 0


Courant Number mean: 0.00390812 max: 0.0106613
deltaT = 3.41415e-06
Time = 2.04362e-05

diagonal:  Solving for rho, Initial residual = 0, Final residual = 0, No Iterations 0
diagonal:  Solving for By, Initial residual = 0, Final residual = 0, No Iterations 0
diagonal:  Solving for Bz, Initial residual = 0, Final residual = 0, No Iterations 0
diagonal:  Solving for rhoUx, Initial residual = 0, Final residual = 0, No Iterations 0
diagonal:  Solving for rhoUy, Initial residual = 0, Final residual = 0, No Iterations 0
diagonal:  Solving for rhoUz, Initial residual = 0, Final residual = 0, No Iterations 0
diagonal:  Solving for rhoE, Initial residual = 0, Final residual = 0, No Iterations 0
ExecutionTime = 0.09 s  ClockTime = 0 s
max(div(Bf)) = 0  average(div(Bf)) = 0


Courant Number mean: 0.00468857 max: 0.0127907
deltaT = 4.0967e-06
Time = 2.45329e-05

diagonal:  Solving for rho, Initial residual = 0, Final residual = 0, No Iterations 0
diagonal:  Solving for By, Initial residual = 0, Final residual = 0, No Iterations 0
diagonal:  Solving for Bz, Initial residual = 0, Final residual = 0, No Iterations 0
diagonal:  Solving for rhoUx, Initial residual = 0, Final residual = 0, No Iterations 0
diagonal:  Solving for rhoUy, Initial residual = 0, Final residual = 0, No Iterations 0
diagonal:  Solving for rhoUz, Initial residual = 0, Final residual = 0, No Iterations 0
diagonal:  Solving for rhoE, Initial residual = 0, Final residual = 0, No Iterations 0
ExecutionTime = 0.09 s  ClockTime = 0 s
max(div(Bf)) = 0  average(div(Bf)) = 0


Courant Number mean: 0.00562576 max: 0.0153477
deltaT = 4.91402e-06
Time = 2.9447e-05

diagonal:  Solving for rho, Initial residual = 0, Final residual = 0, No Iterations 0
diagonal:  Solving for By, Initial residual = 0, Final residual = 0, No Iterations 0
diagonal:  Solving for Bz, Initial residual = 0, Final residual = 0, No Iterations 0
diagonal:  Solving for rhoUx, Initial residual = 0, Final residual = 0, No Iterations 0
diagonal:  Solving for rhoUy, Initial residual = 0, Final residual = 0, No Iterations 0
diagonal:  Solving for rhoUz, Initial residual = 0, Final residual = 0, No Iterations 0
diagonal:  Solving for rhoE, Initial residual = 0, Final residual = 0, No Iterations 0
ExecutionTime = 0.09 s  ClockTime = 0 s
max(div(Bf)) = 0  average(div(Bf)) = 0


Courant Number mean: 0.00674797 max: 0.0184097
deltaT = 5.89625e-06
Time = 3.53432e-05

diagonal:  Solving for rho, Initial residual = 0, Final residual = 0, No Iterations 0
diagonal:  Solving for By, Initial residual = 0, Final residual = 0, No Iterations 0
diagonal:  Solving for Bz, Initial residual = 0, Final residual = 0, No Iterations 0
diagonal:  Solving for rhoUx, Initial residual = 0, Final residual = 0, No Iterations 0
diagonal:  Solving for rhoUy, Initial residual = 0, Final residual = 0, No Iterations 0
diagonal:  Solving for rhoUz, Initial residual = 0, Final residual = 0, No Iterations 0
diagonal:  Solving for rhoE, Initial residual = 0, Final residual = 0, No Iterations 0
ExecutionTime = 0.09 s  ClockTime = 0 s
max(div(Bf)) = 0  average(div(Bf)) = 0


Courant Number mean: 0.00809654 max: 0.0220895
deltaT = 7.07215e-06
Time = 4.24154e-05

diagonal:  Solving for rho, Initial residual = 0, Final residual = 0, No Iterations 0
diagonal:  Solving for By, Initial residual = 0, Final residual = 0, No Iterations 0
diagonal:  Solving for Bz, Initial residual = 0, Final residual = 0, No Iterations 0
diagonal:  Solving for rhoUx, Initial residual = 0, Final residual = 0, No Iterations 0
diagonal:  Solving for rhoUy, Initial residual = 0, Final residual = 0, No Iterations 0
diagonal:  Solving for rhoUz, Initial residual = 0, Final residual = 0, No Iterations 0
diagonal:  Solving for rhoE, Initial residual = 0, Final residual = 0, No Iterations 0
ExecutionTime = 0.09 s  ClockTime = 0 s
max(div(Bf)) = 0  average(div(Bf)) = 0


Courant Number mean: 0.00971098 max: 0.0264949
deltaT = 8.48176e-06
Time = 5.08971e-05

diagonal:  Solving for rho, Initial residual = 0, Final residual = 0, No Iterations 0
diagonal:  Solving for By, Initial residual = 0, Final residual = 0, No Iterations 0
diagonal:  Solving for Bz, Initial residual = 0, Final residual = 0, No Iterations 0
diagonal:  Solving for rhoUx, Initial residual = 0, Final residual = 0, No Iterations 0
diagonal:  Solving for rhoUy, Initial residual = 0, Final residual = 0, No Iterations 0
diagonal:  Solving for rhoUz, Initial residual = 0, Final residual = 0, No Iterations 0
diagonal:  Solving for rhoE, Initial residual = 0, Final residual = 0, No Iterations 0
ExecutionTime = 0.1 s  ClockTime = 0 s
max(div(Bf)) = 0  average(div(Bf)) = 0


Courant Number mean: 0.0116462 max: 0.0317758
deltaT = 1.01729e-05
Time = 6.107e-05

diagonal:  Solving for rho, Initial residual = 0, Final residual = 0, No Iterations 0
diagonal:  Solving for By, Initial residual = 0, Final residual = 0, No Iterations 0
diagonal:  Solving for Bz, Initial residual = 0, Final residual = 0, No Iterations 0
diagonal:  Solving for rhoUx, Initial residual = 0, Final residual = 0, No Iterations 0
diagonal:  Solving for rhoUy, Initial residual = 0, Final residual = 0, No Iterations 0
diagonal:  Solving for rhoUz, Initial residual = 0, Final residual = 0, No Iterations 0
diagonal:  Solving for rhoE, Initial residual = 0, Final residual = 0, No Iterations 0
ExecutionTime = 0.1 s  ClockTime = 0 s
max(div(Bf)) = 0  average(div(Bf)) = 0


Courant Number mean: 0.0139679 max: 0.0381114
deltaT = 1.2195e-05
Time = 7.3265e-05

diagonal:  Solving for rho, Initial residual = 0, Final residual = 0, No Iterations 0
diagonal:  Solving for By, Initial residual = 0, Final residual = 0, No Iterations 0
diagonal:  Solving for Bz, Initial residual = 0, Final residual = 0, No Iterations 0
diagonal:  Solving for rhoUx, Initial residual = 0, Final residual = 0, No Iterations 0
diagonal:  Solving for rhoUy, Initial residual = 0, Final residual = 0, No Iterations 0
diagonal:  Solving for rhoUz, Initial residual = 0, Final residual = 0, No Iterations 0
diagonal:  Solving for rhoE, Initial residual = 0, Final residual = 0, No Iterations 0
ExecutionTime = 0.1 s  ClockTime = 0 s
max(div(Bf)) = 0  average(div(Bf)) = 0


Courant Number mean: 0.0167438 max: 0.045687
deltaT = 1.46196e-05
Time = 8.78847e-05

diagonal:  Solving for rho, Initial residual = 0, Final residual = 0, No Iterations 0
diagonal:  Solving for By, Initial residual = 0, Final residual = 0, No Iterations 0
diagonal:  Solving for Bz, Initial residual = 0, Final residual = 0, No Iterations 0
diagonal:  Solving for rhoUx, Initial residual = 0, Final residual = 0, No Iterations 0
diagonal:  Solving for rhoUy, Initial residual = 0, Final residual = 0, No Iterations 0
diagonal:  Solving for rhoUz, Initial residual = 0, Final residual = 0, No Iterations 0
diagonal:  Solving for rhoE, Initial residual = 0, Final residual = 0, No Iterations 0
ExecutionTime = 0.1 s  ClockTime = 0 s
max(div(Bf)) = 0  average(div(Bf)) = 0


Courant Number mean: 0.0200722 max: 0.0547705
deltaT = 1.72685e-05
Time = 0.000105153

diagonal:  Solving for rho, Initial residual = 0, Final residual = 0, No Iterations 0
diagonal:  Solving for By, Initial residual = 0, Final residual = 0, No Iterations 0
diagonal:  Solving for Bz, Initial residual = 0, Final residual = 0, No Iterations 0
diagonal:  Solving for rhoUx, Initial residual = 0, Final residual = 0, No Iterations 0
diagonal:  Solving for rhoUy, Initial residual = 0, Final residual = 0, No Iterations 0
diagonal:  Solving for rhoUz, Initial residual = 0, Final residual = 0, No Iterations 0
diagonal:  Solving for rhoE, Initial residual = 0, Final residual = 0, No Iterations 0
ExecutionTime = 0.11 s  ClockTime = 0 s
max(div(Bf)) = 0  average(div(Bf)) = 0


Courant Number mean: 0.0237083 max: 0.0646941
deltaT = 1.99091e-05
Time = 0.000125062

diagonal:  Solving for rho, Initial residual = 0, Final residual = 0, No Iterations 0
diagonal:  Solving for By, Initial residual = 0, Final residual = 0, No Iterations 0
diagonal:  Solving for Bz, Initial residual = 0, Final residual = 0, No Iterations 0
diagonal:  Solving for rhoUx, Initial residual = 0, Final residual = 0, No Iterations 0
diagonal:  Solving for rhoUy, Initial residual = 0, Final residual = 0, No Iterations 0
diagonal:  Solving for rhoUz, Initial residual = 0, Final residual = 0, No Iterations 0
diagonal:  Solving for rhoE, Initial residual = 0, Final residual = 0, No Iterations 0
ExecutionTime = 0.11 s  ClockTime = 0 s
max(div(Bf)) = 0  average(div(Bf)) = 0


Courant Number mean: 0.0273328 max: 0.074587
deltaT = 2.25455e-05
Time = 0.000147608

diagonal:  Solving for rho, Initial residual = 0, Final residual = 0, No Iterations 0
diagonal:  Solving for By, Initial residual = 0, Final residual = 0, No Iterations 0
diagonal:  Solving for Bz, Initial residual = 0, Final residual = 0, No Iterations 0
diagonal:  Solving for rhoUx, Initial residual = 0, Final residual = 0, No Iterations 0
diagonal:  Solving for rhoUy, Initial residual = 0, Final residual = 0, No Iterations 0
diagonal:  Solving for rhoUz, Initial residual = 0, Final residual = 0, No Iterations 0
diagonal:  Solving for rhoE, Initial residual = 0, Final residual = 0, No Iterations 0
ExecutionTime = 0.11 s  ClockTime = 0 s
max(div(Bf)) = 0  average(div(Bf)) = 0


Courant Number mean: 0.0309513 max: 0.0844638
deltaT = 2.51979e-05
Time = 0.000172806

diagonal:  Solving for rho, Initial residual = 0, Final residual = 0, No Iterations 0
diagonal:  Solving for By, Initial residual = 0, Final residual = 0, No Iterations 0
diagonal:  Solving for Bz, Initial residual = 0, Final residual = 0, No Iterations 0
diagonal:  Solving for rhoUx, Initial residual = 0, Final residual = 0, No Iterations 0
diagonal:  Solving for rhoUy, Initial residual = 0, Final residual = 0, No Iterations 0
diagonal:  Solving for rhoUz, Initial residual = 0, Final residual = 0, No Iterations 0
diagonal:  Solving for rhoE, Initial residual = 0, Final residual = 0, No Iterations 0
ExecutionTime = 0.11 s  ClockTime = 0 s
max(div(Bf)) = 0  average(div(Bf)) = 0


Courant Number mean: 0.0345917 max: 0.0944007
deltaT = 2.6632e-05
Time = 0.000199438

diagonal:  Solving for rho, Initial residual = 0, Final residual = 0, No Iterations 0
diagonal:  Solving for By, Initial residual = 0, Final residual = 0, No Iterations 0
diagonal:  Solving for Bz, Initial residual = 0, Final residual = 0, No Iterations 0
diagonal:  Solving for rhoUx, Initial residual = 0, Final residual = 0, No Iterations 0
diagonal:  Solving for rhoUy, Initial residual = 0, Final residual = 0, No Iterations 0
diagonal:  Solving for rhoUz, Initial residual = 0, Final residual = 0, No Iterations 0
diagonal:  Solving for rhoE, Initial residual = 0, Final residual = 0, No Iterations 0
ExecutionTime = 0.11 s  ClockTime = 0 s
max(div(Bf)) = 0  average(div(Bf)) = 0


Courant Number mean: 0.0365594 max: 0.0997731
deltaT = 2.6632e-05
Time = 0.00022607

diagonal:  Solving for rho, Initial residual = 0, Final residual = 0, No Iterations 0
diagonal:  Solving for By, Initial residual = 0, Final residual = 0, No Iterations 0
diagonal:  Solving for Bz, Initial residual = 0, Final residual = 0, No Iterations 0
diagonal:  Solving for rhoUx, Initial residual = 0, Final residual = 0, No Iterations 0
diagonal:  Solving for rhoUy, Initial residual = 0, Final residual = 0, No Iterations 0
diagonal:  Solving for rhoUz, Initial residual = 0, Final residual = 0, No Iterations 0
diagonal:  Solving for rhoE, Initial residual = 0, Final residual = 0, No Iterations 0
ExecutionTime = 0.12 s  ClockTime = 0 s
max(div(Bf)) = 0  average(div(Bf)) = 0


Courant Number mean: 0.0365585 max: 0.0997731
deltaT = 2.6632e-05
Time = 0.000252702

diagonal:  Solving for rho, Initial residual = 0, Final residual = 0, No Iterations 0
diagonal:  Solving for By, Initial residual = 0, Final residual = 0, No Iterations 0
diagonal:  Solving for Bz, Initial residual = 0, Final residual = 0, No Iterations 0
diagonal:  Solving for rhoUx, Initial residual = 0, Final residual = 0, No Iterations 0
diagonal:  Solving for rhoUy, Initial residual = 0, Final residual = 0, No Iterations 0
diagonal:  Solving for rhoUz, Initial residual = 0, Final residual = 0, No Iterations 0
diagonal:  Solving for rhoE, Initial residual = 0, Final residual = 0, No Iterations 0
ExecutionTime = 0.12 s  ClockTime = 0 s
max(div(Bf)) = 0  average(div(Bf)) = 0


Courant Number mean: 0.0365577 max: 0.0997731
deltaT = 2.6632e-05
Time = 0.000279334

diagonal:  Solving for rho, Initial residual = 0, Final residual = 0, No Iterations 0
diagonal:  Solving for By, Initial residual = 0, Final residual = 0, No Iterations 0
diagonal:  Solving for Bz, Initial residual = 0, Final residual = 0, No Iterations 0
diagonal:  Solving for rhoUx, Initial residual = 0, Final residual = 0, No Iterations 0
diagonal:  Solving for rhoUy, Initial residual = 0, Final residual = 0, No Iterations 0
diagonal:  Solving for rhoUz, Initial residual = 0, Final residual = 0, No Iterations 0
diagonal:  Solving for rhoE, Initial residual = 0, Final residual = 0, No Iterations 0
ExecutionTime = 0.12 s  ClockTime = 0 s
max(div(Bf)) = 0  average(div(Bf)) = 0


Courant Number mean: 0.036557 max: 0.0997731
deltaT = 2.6632e-05
Time = 0.000305966

diagonal:  Solving for rho, Initial residual = 0, Final residual = 0, No Iterations 0
diagonal:  Solving for By, Initial residual = 0, Final residual = 0, No Iterations 0
diagonal:  Solving for Bz, Initial residual = 0, Final residual = 0, No Iterations 0
diagonal:  Solving for rhoUx, Initial residual = 0, Final residual = 0, No Iterations 0
diagonal:  Solving for rhoUy, Initial residual = 0, Final residual = 0, No Iterations 0
diagonal:  Solving for rhoUz, Initial residual = 0, Final residual = 0, No Iterations 0
diagonal:  Solving for rhoE, Initial residual = 0, Final residual = 0, No Iterations 0
ExecutionTime = 0.12 s  ClockTime = 0 s
max(div(Bf)) = 0  average(div(Bf)) = 0


Courant Number mean: 0.0365563 max: 0.0997731
deltaT = 2.6632e-05
Time = 0.000332598

diagonal:  Solving for rho, Initial residual = 0, Final residual = 0, No Iterations 0
diagonal:  Solving for By, Initial residual = 0, Final residual = 0, No Iterations 0
diagonal:  Solving for Bz, Initial residual = 0, Final residual = 0, No Iterations 0
diagonal:  Solving for rhoUx, Initial residual = 0, Final residual = 0, No Iterations 0
diagonal:  Solving for rhoUy, Initial residual = 0, Final residual = 0, No Iterations 0
diagonal:  Solving for rhoUz, Initial residual = 0, Final residual = 0, No Iterations 0
diagonal:  Solving for rhoE, Initial residual = 0, Final residual = 0, No Iterations 0
ExecutionTime = 0.13 s  ClockTime = 0 s
max(div(Bf)) = 0  average(div(Bf)) = 0


Courant Number mean: 0.0365557 max: 0.0997731
deltaT = 2.6632e-05
Time = 0.00035923

diagonal:  Solving for rho, Initial residual = 0, Final residual = 0, No Iterations 0
diagonal:  Solving for By, Initial residual = 0, Final residual = 0, No Iterations 0
diagonal:  Solving for Bz, Initial residual = 0, Final residual = 0, No Iterations 0
diagonal:  Solving for rhoUx, Initial residual = 0, Final residual = 0, No Iterations 0
diagonal:  Solving for rhoUy, Initial residual = 0, Final residual = 0, No Iterations 0
diagonal:  Solving for rhoUz, Initial residual = 0, Final residual = 0, No Iterations 0
diagonal:  Solving for rhoE, Initial residual = 0, Final residual = 0, No Iterations 0
ExecutionTime = 0.13 s  ClockTime = 0 s
max(div(Bf)) = 0  average(div(Bf)) = 0


Courant Number mean: 0.0365551 max: 0.0997731
deltaT = 2.6632e-05
Time = 0.000385861

diagonal:  Solving for rho, Initial residual = 0, Final residual = 0, No Iterations 0
diagonal:  Solving for By, Initial residual = 0, Final residual = 0, No Iterations 0
diagonal:  Solving for Bz, Initial residual = 0, Final residual = 0, No Iterations 0
diagonal:  Solving for rhoUx, Initial residual = 0, Final residual = 0, No Iterations 0
diagonal:  Solving for rhoUy, Initial residual = 0, Final residual = 0, No Iterations 0
diagonal:  Solving for rhoUz, Initial residual = 0, Final residual = 0, No Iterations 0
diagonal:  Solving for rhoE, Initial residual = 0, Final residual = 0, No Iterations 0
ExecutionTime = 0.13 s  ClockTime = 0 s
max(div(Bf)) = 0  average(div(Bf)) = 0


Courant Number mean: 0.0365545 max: 0.0997731
deltaT = 2.6632e-05
Time = 0.000412493

diagonal:  Solving for rho, Initial residual = 0, Final residual = 0, No Iterations 0
diagonal:  Solving for By, Initial residual = 0, Final residual = 0, No Iterations 0
diagonal:  Solving for Bz, Initial residual = 0, Final residual = 0, No Iterations 0
diagonal:  Solving for rhoUx, Initial residual = 0, Final residual = 0, No Iterations 0
diagonal:  Solving for rhoUy, Initial residual = 0, Final residual = 0, No Iterations 0
diagonal:  Solving for rhoUz, Initial residual = 0, Final residual = 0, No Iterations 0
diagonal:  Solving for rhoE, Initial residual = 0, Final residual = 0, No Iterations 0
ExecutionTime = 0.13 s  ClockTime = 0 s
max(div(Bf)) = 0  average(div(Bf)) = 0


Courant Number mean: 0.0365539 max: 0.0997731
deltaT = 2.6632e-05
Time = 0.000439125

diagonal:  Solving for rho, Initial residual = 0, Final residual = 0, No Iterations 0
diagonal:  Solving for By, Initial residual = 0, Final residual = 0, No Iterations 0
diagonal:  Solving for Bz, Initial residual = 0, Final residual = 0, No Iterations 0
diagonal:  Solving for rhoUx, Initial residual = 0, Final residual = 0, No Iterations 0
diagonal:  Solving for rhoUy, Initial residual = 0, Final residual = 0, No Iterations 0
diagonal:  Solving for rhoUz, Initial residual = 0, Final residual = 0, No Iterations 0
diagonal:  Solving for rhoE, Initial residual = 0, Final residual = 0, No Iterations 0
ExecutionTime = 0.13 s  ClockTime = 0 s
max(div(Bf)) = 0  average(div(Bf)) = 0


Courant Number mean: 0.0365534 max: 0.0997731
deltaT = 2.6632e-05
Time = 0.000465757

diagonal:  Solving for rho, Initial residual = 0, Final residual = 0, No Iterations 0
diagonal:  Solving for By, Initial residual = 0, Final residual = 0, No Iterations 0
diagonal:  Solving for Bz, Initial residual = 0, Final residual = 0, No Iterations 0
diagonal:  Solving for rhoUx, Initial residual = 0, Final residual = 0, No Iterations 0
diagonal:  Solving for rhoUy, Initial residual = 0, Final residual = 0, No Iterations 0
diagonal:  Solving for rhoUz, Initial residual = 0, Final residual = 0, No Iterations 0
diagonal:  Solving for rhoE, Initial residual = 0, Final residual = 0, No Iterations 0
ExecutionTime = 0.14 s  ClockTime = 0 s
max(div(Bf)) = 0  average(div(Bf)) = 0


Courant Number mean: 0.0365528 max: 0.0997731
deltaT = 2.6632e-05
Time = 0.000492389

diagonal:  Solving for rho, Initial residual = 0, Final residual = 0, No Iterations 0
diagonal:  Solving for By, Initial residual = 0, Final residual = 0, No Iterations 0
diagonal:  Solving for Bz, Initial residual = 0, Final residual = 0, No Iterations 0
diagonal:  Solving for rhoUx, Initial residual = 0, Final residual = 0, No Iterations 0
diagonal:  Solving for rhoUy, Initial residual = 0, Final residual = 0, No Iterations 0
diagonal:  Solving for rhoUz, Initial residual = 0, Final residual = 0, No Iterations 0
diagonal:  Solving for rhoE, Initial residual = 0, Final residual = 0, No Iterations 0
ExecutionTime = 0.14 s  ClockTime = 0 s
max(div(Bf)) = 0  average(div(Bf)) = 0


Courant Number mean: 0.0365523 max: 0.0997731
deltaT = 2.6632e-05
Time = 0.000519021

diagonal:  Solving for rho, Initial residual = 0, Final residual = 0, No Iterations 0
diagonal:  Solving for By, Initial residual = 0, Final residual = 0, No Iterations 0
diagonal:  Solving for Bz, Initial residual = 0, Final residual = 0, No Iterations 0
diagonal:  Solving for rhoUx, Initial residual = 0, Final residual = 0, No Iterations 0
diagonal:  Solving for rhoUy, Initial residual = 0, Final residual = 0, No Iterations 0
diagonal:  Solving for rhoUz, Initial residual = 0, Final residual = 0, No Iterations 0
diagonal:  Solving for rhoE, Initial residual = 0, Final residual = 0, No Iterations 0
ExecutionTime = 0.14 s  ClockTime = 0 s
max(div(Bf)) = 0  average(div(Bf)) = 0


Courant Number mean: 0.0365518 max: 0.0997731
deltaT = 2.6632e-05
Time = 0.000545653

diagonal:  Solving for rho, Initial residual = 0, Final residual = 0, No Iterations 0
diagonal:  Solving for By, Initial residual = 0, Final residual = 0, No Iterations 0
diagonal:  Solving for Bz, Initial residual = 0, Final residual = 0, No Iterations 0
diagonal:  Solving for rhoUx, Initial residual = 0, Final residual = 0, No Iterations 0
diagonal:  Solving for rhoUy, Initial residual = 0, Final residual = 0, No Iterations 0
diagonal:  Solving for rhoUz, Initial residual = 0, Final residual = 0, No Iterations 0
diagonal:  Solving for rhoE, Initial residual = 0, Final residual = 0, No Iterations 0
ExecutionTime = 0.14 s  ClockTime = 0 s
max(div(Bf)) = 0  average(div(Bf)) = 0


Courant Number mean: 0.0365513 max: 0.0997731
deltaT = 2.6632e-05
Time = 0.000572285

diagonal:  Solving for rho, Initial residual = 0, Final residual = 0, No Iterations 0
diagonal:  Solving for By, Initial residual = 0, Final residual = 0, No Iterations 0
diagonal:  Solving for Bz, Initial residual = 0, Final residual = 0, No Iterations 0
diagonal:  Solving for rhoUx, Initial residual = 0, Final residual = 0, No Iterations 0
diagonal:  Solving for rhoUy, Initial residual = 0, Final residual = 0, No Iterations 0
diagonal:  Solving for rhoUz, Initial residual = 0, Final residual = 0, No Iterations 0
diagonal:  Solving for rhoE, Initial residual = 0, Final residual = 0, No Iterations 0
ExecutionTime = 0.14 s  ClockTime = 0 s
max(div(Bf)) = 0  average(div(Bf)) = 0


Courant Number mean: 0.0365508 max: 0.0997731
deltaT = 2.6632e-05
Time = 0.000598917

diagonal:  Solving for rho, Initial residual = 0, Final residual = 0, No Iterations 0
diagonal:  Solving for By, Initial residual = 0, Final residual = 0, No Iterations 0
diagonal:  Solving for Bz, Initial residual = 0, Final residual = 0, No Iterations 0
diagonal:  Solving for rhoUx, Initial residual = 0, Final residual = 0, No Iterations 0
diagonal:  Solving for rhoUy, Initial residual = 0, Final residual = 0, No Iterations 0
diagonal:  Solving for rhoUz, Initial residual = 0, Final residual = 0, No Iterations 0
diagonal:  Solving for rhoE, Initial residual = 0, Final residual = 0, No Iterations 0
ExecutionTime = 0.15 s  ClockTime = 0 s
max(div(Bf)) = 0  average(div(Bf)) = 0


Courant Number mean: 0.0365503 max: 0.0997731
deltaT = 2.6632e-05
Time = 0.000625549

diagonal:  Solving for rho, Initial residual = 0, Final residual = 0, No Iterations 0
diagonal:  Solving for By, Initial residual = 0, Final residual = 0, No Iterations 0
diagonal:  Solving for Bz, Initial residual = 0, Final residual = 0, No Iterations 0
diagonal:  Solving for rhoUx, Initial residual = 0, Final residual = 0, No Iterations 0
diagonal:  Solving for rhoUy, Initial residual = 0, Final residual = 0, No Iterations 0
diagonal:  Solving for rhoUz, Initial residual = 0, Final residual = 0, No Iterations 0
diagonal:  Solving for rhoE, Initial residual = 0, Final residual = 0, No Iterations 0
ExecutionTime = 0.15 s  ClockTime = 0 s
max(div(Bf)) = 0  average(div(Bf)) = 0


Courant Number mean: 0.0365497 max: 0.0997731
deltaT = 2.6632e-05
Time = 0.000652181

diagonal:  Solving for rho, Initial residual = 0, Final residual = 0, No Iterations 0
diagonal:  Solving for By, Initial residual = 0, Final residual = 0, No Iterations 0
diagonal:  Solving for Bz, Initial residual = 0, Final residual = 0, No Iterations 0
diagonal:  Solving for rhoUx, Initial residual = 0, Final residual = 0, No Iterations 0
diagonal:  Solving for rhoUy, Initial residual = 0, Final residual = 0, No Iterations 0
diagonal:  Solving for rhoUz, Initial residual = 0, Final residual = 0, No Iterations 0
diagonal:  Solving for rhoE, Initial residual = 0, Final residual = 0, No Iterations 0
ExecutionTime = 0.15 s  ClockTime = 0 s
max(div(Bf)) = 0  average(div(Bf)) = 0


Courant Number mean: 0.0365492 max: 0.0997731
deltaT = 2.6632e-05
Time = 0.000678813

diagonal:  Solving for rho, Initial residual = 0, Final residual = 0, No Iterations 0
diagonal:  Solving for By, Initial residual = 0, Final residual = 0, No Iterations 0
diagonal:  Solving for Bz, Initial residual = 0, Final residual = 0, No Iterations 0
diagonal:  Solving for rhoUx, Initial residual = 0, Final residual = 0, No Iterations 0
diagonal:  Solving for rhoUy, Initial residual = 0, Final residual = 0, No Iterations 0
diagonal:  Solving for rhoUz, Initial residual = 0, Final residual = 0, No Iterations 0
diagonal:  Solving for rhoE, Initial residual = 0, Final residual = 0, No Iterations 0
ExecutionTime = 0.15 s  ClockTime = 0 s
max(div(Bf)) = 0  average(div(Bf)) = 0


Courant Number mean: 0.0365487 max: 0.0997731
deltaT = 2.6632e-05
Time = 0.000705445

diagonal:  Solving for rho, Initial residual = 0, Final residual = 0, No Iterations 0
diagonal:  Solving for By, Initial residual = 0, Final residual = 0, No Iterations 0
diagonal:  Solving for Bz, Initial residual = 0, Final residual = 0, No Iterations 0
diagonal:  Solving for rhoUx, Initial residual = 0, Final residual = 0, No Iterations 0
diagonal:  Solving for rhoUy, Initial residual = 0, Final residual = 0, No Iterations 0
diagonal:  Solving for rhoUz, Initial residual = 0, Final residual = 0, No Iterations 0
diagonal:  Solving for rhoE, Initial residual = 0, Final residual = 0, No Iterations 0
ExecutionTime = 0.16 s  ClockTime = 0 s
max(div(Bf)) = 0  average(div(Bf)) = 0


Courant Number mean: 0.0365481 max: 0.0997731
deltaT = 2.6632e-05
Time = 0.000732077

diagonal:  Solving for rho, Initial residual = 0, Final residual = 0, No Iterations 0
diagonal:  Solving for By, Initial residual = 0, Final residual = 0, No Iterations 0
diagonal:  Solving for Bz, Initial residual = 0, Final residual = 0, No Iterations 0
diagonal:  Solving for rhoUx, Initial residual = 0, Final residual = 0, No Iterations 0
diagonal:  Solving for rhoUy, Initial residual = 0, Final residual = 0, No Iterations 0
diagonal:  Solving for rhoUz, Initial residual = 0, Final residual = 0, No Iterations 0
diagonal:  Solving for rhoE, Initial residual = 0, Final residual = 0, No Iterations 0
ExecutionTime = 0.16 s  ClockTime = 0 s
max(div(Bf)) = 0  average(div(Bf)) = 0


Courant Number mean: 0.0365475 max: 0.0997731
deltaT = 2.6632e-05
Time = 0.000758709

diagonal:  Solving for rho, Initial residual = 0, Final residual = 0, No Iterations 0
diagonal:  Solving for By, Initial residual = 0, Final residual = 0, No Iterations 0
diagonal:  Solving for Bz, Initial residual = 0, Final residual = 0, No Iterations 0
diagonal:  Solving for rhoUx, Initial residual = 0, Final residual = 0, No Iterations 0
diagonal:  Solving for rhoUy, Initial residual = 0, Final residual = 0, No Iterations 0
diagonal:  Solving for rhoUz, Initial residual = 0, Final residual = 0, No Iterations 0
diagonal:  Solving for rhoE, Initial residual = 0, Final residual = 0, No Iterations 0
ExecutionTime = 0.16 s  ClockTime = 0 s
max(div(Bf)) = 0  average(div(Bf)) = 0


Courant Number mean: 0.0365469 max: 0.0997731
deltaT = 2.6632e-05
Time = 0.000785341

diagonal:  Solving for rho, Initial residual = 0, Final residual = 0, No Iterations 0
diagonal:  Solving for By, Initial residual = 0, Final residual = 0, No Iterations 0
diagonal:  Solving for Bz, Initial residual = 0, Final residual = 0, No Iterations 0
diagonal:  Solving for rhoUx, Initial residual = 0, Final residual = 0, No Iterations 0
diagonal:  Solving for rhoUy, Initial residual = 0, Final residual = 0, No Iterations 0
diagonal:  Solving for rhoUz, Initial residual = 0, Final residual = 0, No Iterations 0
diagonal:  Solving for rhoE, Initial residual = 0, Final residual = 0, No Iterations 0
ExecutionTime = 0.16 s  ClockTime = 0 s
max(div(Bf)) = 0  average(div(Bf)) = 0


Courant Number mean: 0.0365464 max: 0.0997731
deltaT = 2.6632e-05
Time = 0.000811973

diagonal:  Solving for rho, Initial residual = 0, Final residual = 0, No Iterations 0
diagonal:  Solving for By, Initial residual = 0, Final residual = 0, No Iterations 0
diagonal:  Solving for Bz, Initial residual = 0, Final residual = 0, No Iterations 0
diagonal:  Solving for rhoUx, Initial residual = 0, Final residual = 0, No Iterations 0
diagonal:  Solving for rhoUy, Initial residual = 0, Final residual = 0, No Iterations 0
diagonal:  Solving for rhoUz, Initial residual = 0, Final residual = 0, No Iterations 0
diagonal:  Solving for rhoE, Initial residual = 0, Final residual = 0, No Iterations 0
ExecutionTime = 0.16 s  ClockTime = 0 s
max(div(Bf)) = 0  average(div(Bf)) = 0


Courant Number mean: 0.0365458 max: 0.0997731
deltaT = 2.6632e-05
Time = 0.000838605

diagonal:  Solving for rho, Initial residual = 0, Final residual = 0, No Iterations 0
diagonal:  Solving for By, Initial residual = 0, Final residual = 0, No Iterations 0
diagonal:  Solving for Bz, Initial residual = 0, Final residual = 0, No Iterations 0
diagonal:  Solving for rhoUx, Initial residual = 0, Final residual = 0, No Iterations 0
diagonal:  Solving for rhoUy, Initial residual = 0, Final residual = 0, No Iterations 0
diagonal:  Solving for rhoUz, Initial residual = 0, Final residual = 0, No Iterations 0
diagonal:  Solving for rhoE, Initial residual = 0, Final residual = 0, No Iterations 0
ExecutionTime = 0.17 s  ClockTime = 0 s
max(div(Bf)) = 0  average(div(Bf)) = 0


Courant Number mean: 0.0365452 max: 0.0997731
deltaT = 2.6632e-05
Time = 0.000865237

diagonal:  Solving for rho, Initial residual = 0, Final residual = 0, No Iterations 0
diagonal:  Solving for By, Initial residual = 0, Final residual = 0, No Iterations 0
diagonal:  Solving for Bz, Initial residual = 0, Final residual = 0, No Iterations 0
diagonal:  Solving for rhoUx, Initial residual = 0, Final residual = 0, No Iterations 0
diagonal:  Solving for rhoUy, Initial residual = 0, Final residual = 0, No Iterations 0
diagonal:  Solving for rhoUz, Initial residual = 0, Final residual = 0, No Iterations 0
diagonal:  Solving for rhoE, Initial residual = 0, Final residual = 0, No Iterations 0
ExecutionTime = 0.17 s  ClockTime = 0 s
max(div(Bf)) = 0  average(div(Bf)) = 0


Courant Number mean: 0.0365447 max: 0.0997731
deltaT = 2.6632e-05
Time = 0.000891869

diagonal:  Solving for rho, Initial residual = 0, Final residual = 0, No Iterations 0
diagonal:  Solving for By, Initial residual = 0, Final residual = 0, No Iterations 0
diagonal:  Solving for Bz, Initial residual = 0, Final residual = 0, No Iterations 0
diagonal:  Solving for rhoUx, Initial residual = 0, Final residual = 0, No Iterations 0
diagonal:  Solving for rhoUy, Initial residual = 0, Final residual = 0, No Iterations 0
diagonal:  Solving for rhoUz, Initial residual = 0, Final residual = 0, No Iterations 0
diagonal:  Solving for rhoE, Initial residual = 0, Final residual = 0, No Iterations 0
ExecutionTime = 0.17 s  ClockTime = 1 s
max(div(Bf)) = 0  average(div(Bf)) = 0


Courant Number mean: 0.0365441 max: 0.0997731
deltaT = 2.6632e-05
Time = 0.000918501

diagonal:  Solving for rho, Initial residual = 0, Final residual = 0, No Iterations 0
diagonal:  Solving for By, Initial residual = 0, Final residual = 0, No Iterations 0
diagonal:  Solving for Bz, Initial residual = 0, Final residual = 0, No Iterations 0
diagonal:  Solving for rhoUx, Initial residual = 0, Final residual = 0, No Iterations 0
diagonal:  Solving for rhoUy, Initial residual = 0, Final residual = 0, No Iterations 0
diagonal:  Solving for rhoUz, Initial residual = 0, Final residual = 0, No Iterations 0
diagonal:  Solving for rhoE, Initial residual = 0, Final residual = 0, No Iterations 0
ExecutionTime = 0.17 s  ClockTime = 1 s
max(div(Bf)) = 0  average(div(Bf)) = 0


Courant Number mean: 0.0365436 max: 0.0997731
deltaT = 2.6632e-05
Time = 0.000945133

diagonal:  Solving for rho, Initial residual = 0, Final residual = 0, No Iterations 0
diagonal:  Solving for By, Initial residual = 0, Final residual = 0, No Iterations 0
diagonal:  Solving for Bz, Initial residual = 0, Final residual = 0, No Iterations 0
diagonal:  Solving for rhoUx, Initial residual = 0, Final residual = 0, No Iterations 0
diagonal:  Solving for rhoUy, Initial residual = 0, Final residual = 0, No Iterations 0
diagonal:  Solving for rhoUz, Initial residual = 0, Final residual = 0, No Iterations 0
diagonal:  Solving for rhoE, Initial residual = 0, Final residual = 0, No Iterations 0
ExecutionTime = 0.17 s  ClockTime = 1 s
max(div(Bf)) = 0  average(div(Bf)) = 0


Courant Number mean: 0.0365432 max: 0.0997731
deltaT = 2.6632e-05
Time = 0.000971765

diagonal:  Solving for rho, Initial residual = 0, Final residual = 0, No Iterations 0
diagonal:  Solving for By, Initial residual = 0, Final residual = 0, No Iterations 0
diagonal:  Solving for Bz, Initial residual = 0, Final residual = 0, No Iterations 0
diagonal:  Solving for rhoUx, Initial residual = 0, Final residual = 0, No Iterations 0
diagonal:  Solving for rhoUy, Initial residual = 0, Final residual = 0, No Iterations 0
diagonal:  Solving for rhoUz, Initial residual = 0, Final residual = 0, No Iterations 0
diagonal:  Solving for rhoE, Initial residual = 0, Final residual = 0, No Iterations 0
ExecutionTime = 0.18 s  ClockTime = 1 s
max(div(Bf)) = 0  average(div(Bf)) = 0


Courant Number mean: 0.0365427 max: 0.0997731
deltaT = 2.6632e-05
Time = 0.000998397

diagonal:  Solving for rho, Initial residual = 0, Final residual = 0, No Iterations 0
diagonal:  Solving for By, Initial residual = 0, Final residual = 0, No Iterations 0
diagonal:  Solving for Bz, Initial residual = 0, Final residual = 0, No Iterations 0
diagonal:  Solving for rhoUx, Initial residual = 0, Final residual = 0, No Iterations 0
diagonal:  Solving for rhoUy, Initial residual = 0, Final residual = 0, No Iterations 0
diagonal:  Solving for rhoUz, Initial residual = 0, Final residual = 0, No Iterations 0
diagonal:  Solving for rhoE, Initial residual = 0, Final residual = 0, No Iterations 0
ExecutionTime = 0.18 s  ClockTime = 1 s
max(div(Bf)) = 0  average(div(Bf)) = 0


Courant Number mean: 0.0365423 max: 0.0997731
deltaT = 2.6632e-05
Time = 0.00102503

diagonal:  Solving for rho, Initial residual = 0, Final residual = 0, No Iterations 0
diagonal:  Solving for By, Initial residual = 0, Final residual = 0, No Iterations 0
diagonal:  Solving for Bz, Initial residual = 0, Final residual = 0, No Iterations 0
diagonal:  Solving for rhoUx, Initial residual = 0, Final residual = 0, No Iterations 0
diagonal:  Solving for rhoUy, Initial residual = 0, Final residual = 0, No Iterations 0
diagonal:  Solving for rhoUz, Initial residual = 0, Final residual = 0, No Iterations 0
diagonal:  Solving for rhoE, Initial residual = 0, Final residual = 0, No Iterations 0
ExecutionTime = 0.18 s  ClockTime = 1 s
max(div(Bf)) = 0  average(div(Bf)) = 0


Courant Number mean: 0.0365419 max: 0.0997731
deltaT = 2.6632e-05
Time = 0.00105166

diagonal:  Solving for rho, Initial residual = 0, Final residual = 0, No Iterations 0
diagonal:  Solving for By, Initial residual = 0, Final residual = 0, No Iterations 0
diagonal:  Solving for Bz, Initial residual = 0, Final residual = 0, No Iterations 0
diagonal:  Solving for rhoUx, Initial residual = 0, Final residual = 0, No Iterations 0
diagonal:  Solving for rhoUy, Initial residual = 0, Final residual = 0, No Iterations 0
diagonal:  Solving for rhoUz, Initial residual = 0, Final residual = 0, No Iterations 0
diagonal:  Solving for rhoE, Initial residual = 0, Final residual = 0, No Iterations 0
ExecutionTime = 0.18 s  ClockTime = 1 s
max(div(Bf)) = 0  average(div(Bf)) = 0


Courant Number mean: 0.0365414 max: 0.0997731
deltaT = 2.6632e-05
Time = 0.00107829

diagonal:  Solving for rho, Initial residual = 0, Final residual = 0, No Iterations 0
diagonal:  Solving for By, Initial residual = 0, Final residual = 0, No Iterations 0
diagonal:  Solving for Bz, Initial residual = 0, Final residual = 0, No Iterations 0
diagonal:  Solving for rhoUx, Initial residual = 0, Final residual = 0, No Iterations 0
diagonal:  Solving for rhoUy, Initial residual = 0, Final residual = 0, No Iterations 0
diagonal:  Solving for rhoUz, Initial residual = 0, Final residual = 0, No Iterations 0
diagonal:  Solving for rhoE, Initial residual = 0, Final residual = 0, No Iterations 0
ExecutionTime = 0.19 s  ClockTime = 1 s
max(div(Bf)) = 0  average(div(Bf)) = 0


Courant Number mean: 0.036541 max: 0.0997731
deltaT = 2.6632e-05
Time = 0.00110492

diagonal:  Solving for rho, Initial residual = 0, Final residual = 0, No Iterations 0
diagonal:  Solving for By, Initial residual = 0, Final residual = 0, No Iterations 0
diagonal:  Solving for Bz, Initial residual = 0, Final residual = 0, No Iterations 0
diagonal:  Solving for rhoUx, Initial residual = 0, Final residual = 0, No Iterations 0
diagonal:  Solving for rhoUy, Initial residual = 0, Final residual = 0, No Iterations 0
diagonal:  Solving for rhoUz, Initial residual = 0, Final residual = 0, No Iterations 0
diagonal:  Solving for rhoE, Initial residual = 0, Final residual = 0, No Iterations 0
ExecutionTime = 0.19 s  ClockTime = 1 s
max(div(Bf)) = 0  average(div(Bf)) = 0


Courant Number mean: 0.0365405 max: 0.0997731
deltaT = 2.6632e-05
Time = 0.00113156

diagonal:  Solving for rho, Initial residual = 0, Final residual = 0, No Iterations 0
diagonal:  Solving for By, Initial residual = 0, Final residual = 0, No Iterations 0
diagonal:  Solving for Bz, Initial residual = 0, Final residual = 0, No Iterations 0
diagonal:  Solving for rhoUx, Initial residual = 0, Final residual = 0, No Iterations 0
diagonal:  Solving for rhoUy, Initial residual = 0, Final residual = 0, No Iterations 0
diagonal:  Solving for rhoUz, Initial residual = 0, Final residual = 0, No Iterations 0
diagonal:  Solving for rhoE, Initial residual = 0, Final residual = 0, No Iterations 0
ExecutionTime = 0.19 s  ClockTime = 1 s
max(div(Bf)) = 0  average(div(Bf)) = 0


Courant Number mean: 0.0365401 max: 0.0997731
deltaT = 2.6632e-05
Time = 0.00115819

diagonal:  Solving for rho, Initial residual = 0, Final residual = 0, No Iterations 0
diagonal:  Solving for By, Initial residual = 0, Final residual = 0, No Iterations 0
diagonal:  Solving for Bz, Initial residual = 0, Final residual = 0, No Iterations 0
diagonal:  Solving for rhoUx, Initial residual = 0, Final residual = 0, No Iterations 0
diagonal:  Solving for rhoUy, Initial residual = 0, Final residual = 0, No Iterations 0
diagonal:  Solving for rhoUz, Initial residual = 0, Final residual = 0, No Iterations 0
diagonal:  Solving for rhoE, Initial residual = 0, Final residual = 0, No Iterations 0
ExecutionTime = 0.19 s  ClockTime = 1 s
max(div(Bf)) = 0  average(div(Bf)) = 0


Courant Number mean: 0.0365396 max: 0.0997731
deltaT = 2.6632e-05
Time = 0.00118482

diagonal:  Solving for rho, Initial residual = 0, Final residual = 0, No Iterations 0
diagonal:  Solving for By, Initial residual = 0, Final residual = 0, No Iterations 0
diagonal:  Solving for Bz, Initial residual = 0, Final residual = 0, No Iterations 0
diagonal:  Solving for rhoUx, Initial residual = 0, Final residual = 0, No Iterations 0
diagonal:  Solving for rhoUy, Initial residual = 0, Final residual = 0, No Iterations 0
diagonal:  Solving for rhoUz, Initial residual = 0, Final residual = 0, No Iterations 0
diagonal:  Solving for rhoE, Initial residual = 0, Final residual = 0, No Iterations 0
ExecutionTime = 0.19 s  ClockTime = 1 s
max(div(Bf)) = 0  average(div(Bf)) = 0


Courant Number mean: 0.0365392 max: 0.0997731
deltaT = 2.6632e-05
Time = 0.00121145

diagonal:  Solving for rho, Initial residual = 0, Final residual = 0, No Iterations 0
diagonal:  Solving for By, Initial residual = 0, Final residual = 0, No Iterations 0
diagonal:  Solving for Bz, Initial residual = 0, Final residual = 0, No Iterations 0
diagonal:  Solving for rhoUx, Initial residual = 0, Final residual = 0, No Iterations 0
diagonal:  Solving for rhoUy, Initial residual = 0, Final residual = 0, No Iterations 0
diagonal:  Solving for rhoUz, Initial residual = 0, Final residual = 0, No Iterations 0
diagonal:  Solving for rhoE, Initial residual = 0, Final residual = 0, No Iterations 0
ExecutionTime = 0.2 s  ClockTime = 1 s
max(div(Bf)) = 0  average(div(Bf)) = 0


Courant Number mean: 0.0365387 max: 0.0997731
deltaT = 2.6632e-05
Time = 0.00123808

diagonal:  Solving for rho, Initial residual = 0, Final residual = 0, No Iterations 0
diagonal:  Solving for By, Initial residual = 0, Final residual = 0, No Iterations 0
diagonal:  Solving for Bz, Initial residual = 0, Final residual = 0, No Iterations 0
diagonal:  Solving for rhoUx, Initial residual = 0, Final residual = 0, No Iterations 0
diagonal:  Solving for rhoUy, Initial residual = 0, Final residual = 0, No Iterations 0
diagonal:  Solving for rhoUz, Initial residual = 0, Final residual = 0, No Iterations 0
diagonal:  Solving for rhoE, Initial residual = 0, Final residual = 0, No Iterations 0
ExecutionTime = 0.2 s  ClockTime = 1 s
max(div(Bf)) = 0  average(div(Bf)) = 0


Courant Number mean: 0.0365382 max: 0.0997731
deltaT = 2.6632e-05
Time = 0.00126472

diagonal:  Solving for rho, Initial residual = 0, Final residual = 0, No Iterations 0
diagonal:  Solving for By, Initial residual = 0, Final residual = 0, No Iterations 0
diagonal:  Solving for Bz, Initial residual = 0, Final residual = 0, No Iterations 0
diagonal:  Solving for rhoUx, Initial residual = 0, Final residual = 0, No Iterations 0
diagonal:  Solving for rhoUy, Initial residual = 0, Final residual = 0, No Iterations 0
diagonal:  Solving for rhoUz, Initial residual = 0, Final residual = 0, No Iterations 0
diagonal:  Solving for rhoE, Initial residual = 0, Final residual = 0, No Iterations 0
ExecutionTime = 0.2 s  ClockTime = 1 s
max(div(Bf)) = 0  average(div(Bf)) = 0


Courant Number mean: 0.0365377 max: 0.0997731
deltaT = 2.6632e-05
Time = 0.00129135

diagonal:  Solving for rho, Initial residual = 0, Final residual = 0, No Iterations 0
diagonal:  Solving for By, Initial residual = 0, Final residual = 0, No Iterations 0
diagonal:  Solving for Bz, Initial residual = 0, Final residual = 0, No Iterations 0
diagonal:  Solving for rhoUx, Initial residual = 0, Final residual = 0, No Iterations 0
diagonal:  Solving for rhoUy, Initial residual = 0, Final residual = 0, No Iterations 0
diagonal:  Solving for rhoUz, Initial residual = 0, Final residual = 0, No Iterations 0
diagonal:  Solving for rhoE, Initial residual = 0, Final residual = 0, No Iterations 0
ExecutionTime = 0.2 s  ClockTime = 1 s
max(div(Bf)) = 0  average(div(Bf)) = 0


Courant Number mean: 0.0365372 max: 0.0997731
deltaT = 2.6632e-05
Time = 0.00131798

diagonal:  Solving for rho, Initial residual = 0, Final residual = 0, No Iterations 0
diagonal:  Solving for By, Initial residual = 0, Final residual = 0, No Iterations 0
diagonal:  Solving for Bz, Initial residual = 0, Final residual = 0, No Iterations 0
diagonal:  Solving for rhoUx, Initial residual = 0, Final residual = 0, No Iterations 0
diagonal:  Solving for rhoUy, Initial residual = 0, Final residual = 0, No Iterations 0
diagonal:  Solving for rhoUz, Initial residual = 0, Final residual = 0, No Iterations 0
diagonal:  Solving for rhoE, Initial residual = 0, Final residual = 0, No Iterations 0
ExecutionTime = 0.2 s  ClockTime = 1 s
max(div(Bf)) = 0  average(div(Bf)) = 0


Courant Number mean: 0.0365367 max: 0.0997731
deltaT = 2.6632e-05
Time = 0.00134461

diagonal:  Solving for rho, Initial residual = 0, Final residual = 0, No Iterations 0
diagonal:  Solving for By, Initial residual = 0, Final residual = 0, No Iterations 0
diagonal:  Solving for Bz, Initial residual = 0, Final residual = 0, No Iterations 0
diagonal:  Solving for rhoUx, Initial residual = 0, Final residual = 0, No Iterations 0
diagonal:  Solving for rhoUy, Initial residual = 0, Final residual = 0, No Iterations 0
diagonal:  Solving for rhoUz, Initial residual = 0, Final residual = 0, No Iterations 0
diagonal:  Solving for rhoE, Initial residual = 0, Final residual = 0, No Iterations 0
ExecutionTime = 0.21 s  ClockTime = 1 s
max(div(Bf)) = 0  average(div(Bf)) = 0


Courant Number mean: 0.0365362 max: 0.0997731
deltaT = 2.6632e-05
Time = 0.00137124

diagonal:  Solving for rho, Initial residual = 0, Final residual = 0, No Iterations 0
diagonal:  Solving for By, Initial residual = 0, Final residual = 0, No Iterations 0
diagonal:  Solving for Bz, Initial residual = 0, Final residual = 0, No Iterations 0
diagonal:  Solving for rhoUx, Initial residual = 0, Final residual = 0, No Iterations 0
diagonal:  Solving for rhoUy, Initial residual = 0, Final residual = 0, No Iterations 0
diagonal:  Solving for rhoUz, Initial residual = 0, Final residual = 0, No Iterations 0
diagonal:  Solving for rhoE, Initial residual = 0, Final residual = 0, No Iterations 0
ExecutionTime = 0.21 s  ClockTime = 1 s
max(div(Bf)) = 0  average(div(Bf)) = 0


Courant Number mean: 0.0365357 max: 0.0997731
deltaT = 2.6632e-05
Time = 0.00139788

diagonal:  Solving for rho, Initial residual = 0, Final residual = 0, No Iterations 0
diagonal:  Solving for By, Initial residual = 0, Final residual = 0, No Iterations 0
diagonal:  Solving for Bz, Initial residual = 0, Final residual = 0, No Iterations 0
diagonal:  Solving for rhoUx, Initial residual = 0, Final residual = 0, No Iterations 0
diagonal:  Solving for rhoUy, Initial residual = 0, Final residual = 0, No Iterations 0
diagonal:  Solving for rhoUz, Initial residual = 0, Final residual = 0, No Iterations 0
diagonal:  Solving for rhoE, Initial residual = 0, Final residual = 0, No Iterations 0
ExecutionTime = 0.21 s  ClockTime = 1 s
max(div(Bf)) = 0  average(div(Bf)) = 0


Courant Number mean: 0.0365352 max: 0.0997731
deltaT = 2.6632e-05
Time = 0.00142451

diagonal:  Solving for rho, Initial residual = 0, Final residual = 0, No Iterations 0
diagonal:  Solving for By, Initial residual = 0, Final residual = 0, No Iterations 0
diagonal:  Solving for Bz, Initial residual = 0, Final residual = 0, No Iterations 0
diagonal:  Solving for rhoUx, Initial residual = 0, Final residual = 0, No Iterations 0
diagonal:  Solving for rhoUy, Initial residual = 0, Final residual = 0, No Iterations 0
diagonal:  Solving for rhoUz, Initial residual = 0, Final residual = 0, No Iterations 0
diagonal:  Solving for rhoE, Initial residual = 0, Final residual = 0, No Iterations 0
ExecutionTime = 0.21 s  ClockTime = 1 s
max(div(Bf)) = 0  average(div(Bf)) = 0


Courant Number mean: 0.0365346 max: 0.0997731
deltaT = 2.6632e-05
Time = 0.00145114

diagonal:  Solving for rho, Initial residual = 0, Final residual = 0, No Iterations 0
diagonal:  Solving for By, Initial residual = 0, Final residual = 0, No Iterations 0
diagonal:  Solving for Bz, Initial residual = 0, Final residual = 0, No Iterations 0
diagonal:  Solving for rhoUx, Initial residual = 0, Final residual = 0, No Iterations 0
diagonal:  Solving for rhoUy, Initial residual = 0, Final residual = 0, No Iterations 0
diagonal:  Solving for rhoUz, Initial residual = 0, Final residual = 0, No Iterations 0
diagonal:  Solving for rhoE, Initial residual = 0, Final residual = 0, No Iterations 0
ExecutionTime = 0.21 s  ClockTime = 1 s
max(div(Bf)) = 0  average(div(Bf)) = 0


Courant Number mean: 0.0365341 max: 0.0997731
deltaT = 2.6632e-05
Time = 0.00147777

diagonal:  Solving for rho, Initial residual = 0, Final residual = 0, No Iterations 0
diagonal:  Solving for By, Initial residual = 0, Final residual = 0, No Iterations 0
diagonal:  Solving for Bz, Initial residual = 0, Final residual = 0, No Iterations 0
diagonal:  Solving for rhoUx, Initial residual = 0, Final residual = 0, No Iterations 0
diagonal:  Solving for rhoUy, Initial residual = 0, Final residual = 0, No Iterations 0
diagonal:  Solving for rhoUz, Initial residual = 0, Final residual = 0, No Iterations 0
diagonal:  Solving for rhoE, Initial residual = 0, Final residual = 0, No Iterations 0
ExecutionTime = 0.22 s  ClockTime = 1 s
max(div(Bf)) = 0  average(div(Bf)) = 0


Courant Number mean: 0.0365336 max: 0.0997731
deltaT = 2.6632e-05
Time = 0.0015044

diagonal:  Solving for rho, Initial residual = 0, Final residual = 0, No Iterations 0
diagonal:  Solving for By, Initial residual = 0, Final residual = 0, No Iterations 0
diagonal:  Solving for Bz, Initial residual = 0, Final residual = 0, No Iterations 0
diagonal:  Solving for rhoUx, Initial residual = 0, Final residual = 0, No Iterations 0
diagonal:  Solving for rhoUy, Initial residual = 0, Final residual = 0, No Iterations 0
diagonal:  Solving for rhoUz, Initial residual = 0, Final residual = 0, No Iterations 0
diagonal:  Solving for rhoE, Initial residual = 0, Final residual = 0, No Iterations 0
ExecutionTime = 0.22 s  ClockTime = 1 s
max(div(Bf)) = 0  average(div(Bf)) = 0


Courant Number mean: 0.0365331 max: 0.0997731
deltaT = 2.6632e-05
Time = 0.00153104

diagonal:  Solving for rho, Initial residual = 0, Final residual = 0, No Iterations 0
diagonal:  Solving for By, Initial residual = 0, Final residual = 0, No Iterations 0
diagonal:  Solving for Bz, Initial residual = 0, Final residual = 0, No Iterations 0
diagonal:  Solving for rhoUx, Initial residual = 0, Final residual = 0, No Iterations 0
diagonal:  Solving for rhoUy, Initial residual = 0, Final residual = 0, No Iterations 0
diagonal:  Solving for rhoUz, Initial residual = 0, Final residual = 0, No Iterations 0
diagonal:  Solving for rhoE, Initial residual = 0, Final residual = 0, No Iterations 0
ExecutionTime = 0.22 s  ClockTime = 1 s
max(div(Bf)) = 0  average(div(Bf)) = 0


Courant Number mean: 0.0365325 max: 0.0997731
deltaT = 2.6632e-05
Time = 0.00155767

diagonal:  Solving for rho, Initial residual = 0, Final residual = 0, No Iterations 0
diagonal:  Solving for By, Initial residual = 0, Final residual = 0, No Iterations 0
diagonal:  Solving for Bz, Initial residual = 0, Final residual = 0, No Iterations 0
diagonal:  Solving for rhoUx, Initial residual = 0, Final residual = 0, No Iterations 0
diagonal:  Solving for rhoUy, Initial residual = 0, Final residual = 0, No Iterations 0
diagonal:  Solving for rhoUz, Initial residual = 0, Final residual = 0, No Iterations 0
diagonal:  Solving for rhoE, Initial residual = 0, Final residual = 0, No Iterations 0
ExecutionTime = 0.22 s  ClockTime = 1 s
max(div(Bf)) = 0  average(div(Bf)) = 0


Courant Number mean: 0.036532 max: 0.0997731
deltaT = 2.6632e-05
Time = 0.0015843

diagonal:  Solving for rho, Initial residual = 0, Final residual = 0, No Iterations 0
diagonal:  Solving for By, Initial residual = 0, Final residual = 0, No Iterations 0
diagonal:  Solving for Bz, Initial residual = 0, Final residual = 0, No Iterations 0
diagonal:  Solving for rhoUx, Initial residual = 0, Final residual = 0, No Iterations 0
diagonal:  Solving for rhoUy, Initial residual = 0, Final residual = 0, No Iterations 0
diagonal:  Solving for rhoUz, Initial residual = 0, Final residual = 0, No Iterations 0
diagonal:  Solving for rhoE, Initial residual = 0, Final residual = 0, No Iterations 0
ExecutionTime = 0.23 s  ClockTime = 1 s
max(div(Bf)) = 0  average(div(Bf)) = 0


Courant Number mean: 0.0365315 max: 0.0997731
deltaT = 2.6632e-05
Time = 0.00161093

diagonal:  Solving for rho, Initial residual = 0, Final residual = 0, No Iterations 0
diagonal:  Solving for By, Initial residual = 0, Final residual = 0, No Iterations 0
diagonal:  Solving for Bz, Initial residual = 0, Final residual = 0, No Iterations 0
diagonal:  Solving for rhoUx, Initial residual = 0, Final residual = 0, No Iterations 0
diagonal:  Solving for rhoUy, Initial residual = 0, Final residual = 0, No Iterations 0
diagonal:  Solving for rhoUz, Initial residual = 0, Final residual = 0, No Iterations 0
diagonal:  Solving for rhoE, Initial residual = 0, Final residual = 0, No Iterations 0
ExecutionTime = 0.23 s  ClockTime = 1 s
max(div(Bf)) = 0  average(div(Bf)) = 0


Courant Number mean: 0.0365309 max: 0.0997731
deltaT = 2.6632e-05
Time = 0.00163756

diagonal:  Solving for rho, Initial residual = 0, Final residual = 0, No Iterations 0
diagonal:  Solving for By, Initial residual = 0, Final residual = 0, No Iterations 0
diagonal:  Solving for Bz, Initial residual = 0, Final residual = 0, No Iterations 0
diagonal:  Solving for rhoUx, Initial residual = 0, Final residual = 0, No Iterations 0
diagonal:  Solving for rhoUy, Initial residual = 0, Final residual = 0, No Iterations 0
diagonal:  Solving for rhoUz, Initial residual = 0, Final residual = 0, No Iterations 0
diagonal:  Solving for rhoE, Initial residual = 0, Final residual = 0, No Iterations 0
ExecutionTime = 0.23 s  ClockTime = 1 s
max(div(Bf)) = 0  average(div(Bf)) = 0


Courant Number mean: 0.0365304 max: 0.0997731
deltaT = 2.6632e-05
Time = 0.0016642

diagonal:  Solving for rho, Initial residual = 0, Final residual = 0, No Iterations 0
diagonal:  Solving for By, Initial residual = 0, Final residual = 0, No Iterations 0
diagonal:  Solving for Bz, Initial residual = 0, Final residual = 0, No Iterations 0
diagonal:  Solving for rhoUx, Initial residual = 0, Final residual = 0, No Iterations 0
diagonal:  Solving for rhoUy, Initial residual = 0, Final residual = 0, No Iterations 0
diagonal:  Solving for rhoUz, Initial residual = 0, Final residual = 0, No Iterations 0
diagonal:  Solving for rhoE, Initial residual = 0, Final residual = 0, No Iterations 0
ExecutionTime = 0.23 s  ClockTime = 1 s
max(div(Bf)) = 0  average(div(Bf)) = 0


Courant Number mean: 0.0365298 max: 0.0997731
deltaT = 2.6632e-05
Time = 0.00169083

diagonal:  Solving for rho, Initial residual = 0, Final residual = 0, No Iterations 0
diagonal:  Solving for By, Initial residual = 0, Final residual = 0, No Iterations 0
diagonal:  Solving for Bz, Initial residual = 0, Final residual = 0, No Iterations 0
diagonal:  Solving for rhoUx, Initial residual = 0, Final residual = 0, No Iterations 0
diagonal:  Solving for rhoUy, Initial residual = 0, Final residual = 0, No Iterations 0
diagonal:  Solving for rhoUz, Initial residual = 0, Final residual = 0, No Iterations 0
diagonal:  Solving for rhoE, Initial residual = 0, Final residual = 0, No Iterations 0
ExecutionTime = 0.23 s  ClockTime = 1 s
max(div(Bf)) = 0  average(div(Bf)) = 0


Courant Number mean: 0.0365293 max: 0.0997731
deltaT = 2.6632e-05
Time = 0.00171746

diagonal:  Solving for rho, Initial residual = 0, Final residual = 0, No Iterations 0
diagonal:  Solving for By, Initial residual = 0, Final residual = 0, No Iterations 0
diagonal:  Solving for Bz, Initial residual = 0, Final residual = 0, No Iterations 0
[...]

diagonal:  Solving for rho, Initial residual = 0, Final residual = 0, No Iterations 0
diagonal:  Solving for By, Initial residual = 0, Final residual = 0, No Iterations 0
diagonal:  Solving for Bz, Initial residual = 0, Final residual = 0, No Iterations 0
diagonal:  Solving for rhoUx, Initial residual = 0, Final residual = 0, No Iterations 0
diagonal:  Solving for rhoUy, Initial residual = 0, Final residual = 0, No Iterations 0
diagonal:  Solving for rhoUz, Initial residual = 0, Final residual = 0, No Iterations 0
diagonal:  Solving for rhoE, Initial residual = 0, Final residual = 0, No Iterations 0
ExecutionTime = 8.5 s  ClockTime = 9 s
max(div(Bf)) = 0  average(div(Bf)) = 0


Courant Number mean: 0.0354605 max: 0.0999031
deltaT = 2.66667e-05
Time = 0.09936

diagonal:  Solving for rho, Initial residual = 0, Final residual = 0, No Iterations 0
diagonal:  Solving for By, Initial residual = 0, Final residual = 0, No Iterations 0
diagonal:  Solving for Bz, Initial residual = 0, Final residual = 0, No Iterations 0
diagonal:  Solving for rhoUx, Initial residual = 0, Final residual = 0, No Iterations 0
diagonal:  Solving for rhoUy, Initial residual = 0, Final residual = 0, No Iterations 0
diagonal:  Solving for rhoUz, Initial residual = 0, Final residual = 0, No Iterations 0
diagonal:  Solving for rhoE, Initial residual = 0, Final residual = 0, No Iterations 0
ExecutionTime = 8.5 s  ClockTime = 9 s
max(div(Bf)) = 0  average(div(Bf)) = 0


Courant Number mean: 0.0354601 max: 0.0999031
deltaT = 2.66667e-05
Time = 0.0993867

diagonal:  Solving for rho, Initial residual = 0, Final residual = 0, No Iterations 0
diagonal:  Solving for By, Initial residual = 0, Final residual = 0, No Iterations 0
diagonal:  Solving for Bz, Initial residual = 0, Final residual = 0, No Iterations 0
diagonal:  Solving for rhoUx, Initial residual = 0, Final residual = 0, No Iterations 0
diagonal:  Solving for rhoUy, Initial residual = 0, Final residual = 0, No Iterations 0
diagonal:  Solving for rhoUz, Initial residual = 0, Final residual = 0, No Iterations 0
diagonal:  Solving for rhoE, Initial residual = 0, Final residual = 0, No Iterations 0
ExecutionTime = 8.5 s  ClockTime = 9 s
max(div(Bf)) = 0  average(div(Bf)) = 0


Courant Number mean: 0.0354597 max: 0.0999031
deltaT = 2.66667e-05
Time = 0.0994133

diagonal:  Solving for rho, Initial residual = 0, Final residual = 0, No Iterations 0
diagonal:  Solving for By, Initial residual = 0, Final residual = 0, No Iterations 0
diagonal:  Solving for Bz, Initial residual = 0, Final residual = 0, No Iterations 0
diagonal:  Solving for rhoUx, Initial residual = 0, Final residual = 0, No Iterations 0
diagonal:  Solving for rhoUy, Initial residual = 0, Final residual = 0, No Iterations 0
diagonal:  Solving for rhoUz, Initial residual = 0, Final residual = 0, No Iterations 0
diagonal:  Solving for rhoE, Initial residual = 0, Final residual = 0, No Iterations 0
ExecutionTime = 8.51 s  ClockTime = 9 s
max(div(Bf)) = 0  average(div(Bf)) = 0


Courant Number mean: 0.0354594 max: 0.0999031
deltaT = 2.66667e-05
Time = 0.09944

diagonal:  Solving for rho, Initial residual = 0, Final residual = 0, No Iterations 0
diagonal:  Solving for By, Initial residual = 0, Final residual = 0, No Iterations 0
diagonal:  Solving for Bz, Initial residual = 0, Final residual = 0, No Iterations 0
diagonal:  Solving for rhoUx, Initial residual = 0, Final residual = 0, No Iterations 0
diagonal:  Solving for rhoUy, Initial residual = 0, Final residual = 0, No Iterations 0
diagonal:  Solving for rhoUz, Initial residual = 0, Final residual = 0, No Iterations 0
diagonal:  Solving for rhoE, Initial residual = 0, Final residual = 0, No Iterations 0
ExecutionTime = 8.51 s  ClockTime = 9 s
max(div(Bf)) = 0  average(div(Bf)) = 0


Courant Number mean: 0.0354592 max: 0.0999031
deltaT = 2.66667e-05
Time = 0.0994667

diagonal:  Solving for rho, Initial residual = 0, Final residual = 0, No Iterations 0
diagonal:  Solving for By, Initial residual = 0, Final residual = 0, No Iterations 0
diagonal:  Solving for Bz, Initial residual = 0, Final residual = 0, No Iterations 0
diagonal:  Solving for rhoUx, Initial residual = 0, Final residual = 0, No Iterations 0
diagonal:  Solving for rhoUy, Initial residual = 0, Final residual = 0, No Iterations 0
diagonal:  Solving for rhoUz, Initial residual = 0, Final residual = 0, No Iterations 0
diagonal:  Solving for rhoE, Initial residual = 0, Final residual = 0, No Iterations 0
ExecutionTime = 8.51 s  ClockTime = 9 s
max(div(Bf)) = 0  average(div(Bf)) = 0


Courant Number mean: 0.035459 max: 0.0999031
deltaT = 2.66667e-05
Time = 0.0994933

diagonal:  Solving for rho, Initial residual = 0, Final residual = 0, No Iterations 0
diagonal:  Solving for By, Initial residual = 0, Final residual = 0, No Iterations 0
diagonal:  Solving for Bz, Initial residual = 0, Final residual = 0, No Iterations 0
diagonal:  Solving for rhoUx, Initial residual = 0, Final residual = 0, No Iterations 0
diagonal:  Solving for rhoUy, Initial residual = 0, Final residual = 0, No Iterations 0
diagonal:  Solving for rhoUz, Initial residual = 0, Final residual = 0, No Iterations 0
diagonal:  Solving for rhoE, Initial residual = 0, Final residual = 0, No Iterations 0
ExecutionTime = 8.51 s  ClockTime = 9 s
max(div(Bf)) = 0  average(div(Bf)) = 0


Courant Number mean: 0.0354588 max: 0.0999031
deltaT = 2.66667e-05
Time = 0.09952

diagonal:  Solving for rho, Initial residual = 0, Final residual = 0, No Iterations 0
diagonal:  Solving for By, Initial residual = 0, Final residual = 0, No Iterations 0
diagonal:  Solving for Bz, Initial residual = 0, Final residual = 0, No Iterations 0
diagonal:  Solving for rhoUx, Initial residual = 0, Final residual = 0, No Iterations 0
diagonal:  Solving for rhoUy, Initial residual = 0, Final residual = 0, No Iterations 0
diagonal:  Solving for rhoUz, Initial residual = 0, Final residual = 0, No Iterations 0
diagonal:  Solving for rhoE, Initial residual = 0, Final residual = 0, No Iterations 0
ExecutionTime = 8.51 s  ClockTime = 9 s
max(div(Bf)) = 0  average(div(Bf)) = 0


Courant Number mean: 0.0354585 max: 0.0999031
deltaT = 2.66667e-05
Time = 0.0995467

diagonal:  Solving for rho, Initial residual = 0, Final residual = 0, No Iterations 0
diagonal:  Solving for By, Initial residual = 0, Final residual = 0, No Iterations 0
diagonal:  Solving for Bz, Initial residual = 0, Final residual = 0, No Iterations 0
diagonal:  Solving for rhoUx, Initial residual = 0, Final residual = 0, No Iterations 0
diagonal:  Solving for rhoUy, Initial residual = 0, Final residual = 0, No Iterations 0
diagonal:  Solving for rhoUz, Initial residual = 0, Final residual = 0, No Iterations 0
diagonal:  Solving for rhoE, Initial residual = 0, Final residual = 0, No Iterations 0
ExecutionTime = 8.52 s  ClockTime = 9 s
max(div(Bf)) = 0  average(div(Bf)) = 0


Courant Number mean: 0.0354583 max: 0.0999031
deltaT = 2.66667e-05
Time = 0.0995733

diagonal:  Solving for rho, Initial residual = 0, Final residual = 0, No Iterations 0
diagonal:  Solving for By, Initial residual = 0, Final residual = 0, No Iterations 0
diagonal:  Solving for Bz, Initial residual = 0, Final residual = 0, No Iterations 0
diagonal:  Solving for rhoUx, Initial residual = 0, Final residual = 0, No Iterations 0
diagonal:  Solving for rhoUy, Initial residual = 0, Final residual = 0, No Iterations 0
diagonal:  Solving for rhoUz, Initial residual = 0, Final residual = 0, No Iterations 0
diagonal:  Solving for rhoE, Initial residual = 0, Final residual = 0, No Iterations 0
ExecutionTime = 8.52 s  ClockTime = 9 s
max(div(Bf)) = 0  average(div(Bf)) = 0


Courant Number mean: 0.035458 max: 0.0999031
deltaT = 2.66667e-05
Time = 0.0996

diagonal:  Solving for rho, Initial residual = 0, Final residual = 0, No Iterations 0
diagonal:  Solving for By, Initial residual = 0, Final residual = 0, No Iterations 0
diagonal:  Solving for Bz, Initial residual = 0, Final residual = 0, No Iterations 0
diagonal:  Solving for rhoUx, Initial residual = 0, Final residual = 0, No Iterations 0
diagonal:  Solving for rhoUy, Initial residual = 0, Final residual = 0, No Iterations 0
diagonal:  Solving for rhoUz, Initial residual = 0, Final residual = 0, No Iterations 0
diagonal:  Solving for rhoE, Initial residual = 0, Final residual = 0, No Iterations 0
ExecutionTime = 8.52 s  ClockTime = 9 s
max(div(Bf)) = 0  average(div(Bf)) = 0


Courant Number mean: 0.0354578 max: 0.0999031
deltaT = 2.66667e-05
Time = 0.0996267

diagonal:  Solving for rho, Initial residual = 0, Final residual = 0, No Iterations 0
diagonal:  Solving for By, Initial residual = 0, Final residual = 0, No Iterations 0
diagonal:  Solving for Bz, Initial residual = 0, Final residual = 0, No Iterations 0
diagonal:  Solving for rhoUx, Initial residual = 0, Final residual = 0, No Iterations 0
diagonal:  Solving for rhoUy, Initial residual = 0, Final residual = 0, No Iterations 0
diagonal:  Solving for rhoUz, Initial residual = 0, Final residual = 0, No Iterations 0
diagonal:  Solving for rhoE, Initial residual = 0, Final residual = 0, No Iterations 0
ExecutionTime = 8.52 s  ClockTime = 9 s
max(div(Bf)) = 0  average(div(Bf)) = 0


Courant Number mean: 0.0354575 max: 0.0999031
deltaT = 2.66667e-05
Time = 0.0996533

diagonal:  Solving for rho, Initial residual = 0, Final residual = 0, No Iterations 0
diagonal:  Solving for By, Initial residual = 0, Final residual = 0, No Iterations 0
diagonal:  Solving for Bz, Initial residual = 0, Final residual = 0, No Iterations 0
diagonal:  Solving for rhoUx, Initial residual = 0, Final residual = 0, No Iterations 0
diagonal:  Solving for rhoUy, Initial residual = 0, Final residual = 0, No Iterations 0
diagonal:  Solving for rhoUz, Initial residual = 0, Final residual = 0, No Iterations 0
diagonal:  Solving for rhoE, Initial residual = 0, Final residual = 0, No Iterations 0
ExecutionTime = 8.52 s  ClockTime = 9 s
max(div(Bf)) = 0  average(div(Bf)) = 0


Courant Number mean: 0.0354572 max: 0.0999031
deltaT = 2.66667e-05
Time = 0.09968

diagonal:  Solving for rho, Initial residual = 0, Final residual = 0, No Iterations 0
diagonal:  Solving for By, Initial residual = 0, Final residual = 0, No Iterations 0
diagonal:  Solving for Bz, Initial residual = 0, Final residual = 0, No Iterations 0
diagonal:  Solving for rhoUx, Initial residual = 0, Final residual = 0, No Iterations 0
diagonal:  Solving for rhoUy, Initial residual = 0, Final residual = 0, No Iterations 0
diagonal:  Solving for rhoUz, Initial residual = 0, Final residual = 0, No Iterations 0
diagonal:  Solving for rhoE, Initial residual = 0, Final residual = 0, No Iterations 0
ExecutionTime = 8.53 s  ClockTime = 9 s
max(div(Bf)) = 0  average(div(Bf)) = 0


Courant Number mean: 0.0354569 max: 0.0999031
deltaT = 2.66667e-05
Time = 0.0997067

diagonal:  Solving for rho, Initial residual = 0, Final residual = 0, No Iterations 0
diagonal:  Solving for By, Initial residual = 0, Final residual = 0, No Iterations 0
diagonal:  Solving for Bz, Initial residual = 0, Final residual = 0, No Iterations 0
diagonal:  Solving for rhoUx, Initial residual = 0, Final residual = 0, No Iterations 0
diagonal:  Solving for rhoUy, Initial residual = 0, Final residual = 0, No Iterations 0
diagonal:  Solving for rhoUz, Initial residual = 0, Final residual = 0, No Iterations 0
diagonal:  Solving for rhoE, Initial residual = 0, Final residual = 0, No Iterations 0
ExecutionTime = 8.53 s  ClockTime = 9 s
max(div(Bf)) = 0  average(div(Bf)) = 0


Courant Number mean: 0.0354566 max: 0.0999031
deltaT = 2.66667e-05
Time = 0.0997333

diagonal:  Solving for rho, Initial residual = 0, Final residual = 0, No Iterations 0
diagonal:  Solving for By, Initial residual = 0, Final residual = 0, No Iterations 0
diagonal:  Solving for Bz, Initial residual = 0, Final residual = 0, No Iterations 0
diagonal:  Solving for rhoUx, Initial residual = 0, Final residual = 0, No Iterations 0
diagonal:  Solving for rhoUy, Initial residual = 0, Final residual = 0, No Iterations 0
diagonal:  Solving for rhoUz, Initial residual = 0, Final residual = 0, No Iterations 0
diagonal:  Solving for rhoE, Initial residual = 0, Final residual = 0, No Iterations 0
ExecutionTime = 8.53 s  ClockTime = 9 s
max(div(Bf)) = 0  average(div(Bf)) = 0


Courant Number mean: 0.0354564 max: 0.0999031
deltaT = 2.66667e-05
Time = 0.09976

diagonal:  Solving for rho, Initial residual = 0, Final residual = 0, No Iterations 0
diagonal:  Solving for By, Initial residual = 0, Final residual = 0, No Iterations 0
diagonal:  Solving for Bz, Initial residual = 0, Final residual = 0, No Iterations 0
diagonal:  Solving for rhoUx, Initial residual = 0, Final residual = 0, No Iterations 0
diagonal:  Solving for rhoUy, Initial residual = 0, Final residual = 0, No Iterations 0
diagonal:  Solving for rhoUz, Initial residual = 0, Final residual = 0, No Iterations 0
diagonal:  Solving for rhoE, Initial residual = 0, Final residual = 0, No Iterations 0
ExecutionTime = 8.53 s  ClockTime = 9 s
max(div(Bf)) = 0  average(div(Bf)) = 0


Courant Number mean: 0.0354561 max: 0.0999031
deltaT = 2.66667e-05
Time = 0.0997867

diagonal:  Solving for rho, Initial residual = 0, Final residual = 0, No Iterations 0
diagonal:  Solving for By, Initial residual = 0, Final residual = 0, No Iterations 0
diagonal:  Solving for Bz, Initial residual = 0, Final residual = 0, No Iterations 0
diagonal:  Solving for rhoUx, Initial residual = 0, Final residual = 0, No Iterations 0
diagonal:  Solving for rhoUy, Initial residual = 0, Final residual = 0, No Iterations 0
diagonal:  Solving for rhoUz, Initial residual = 0, Final residual = 0, No Iterations 0
diagonal:  Solving for rhoE, Initial residual = 0, Final residual = 0, No Iterations 0
ExecutionTime = 8.54 s  ClockTime = 9 s
max(div(Bf)) = 0  average(div(Bf)) = 0


Courant Number mean: 0.0354557 max: 0.0999031
deltaT = 2.66667e-05
Time = 0.0998133

diagonal:  Solving for rho, Initial residual = 0, Final residual = 0, No Iterations 0
diagonal:  Solving for By, Initial residual = 0, Final residual = 0, No Iterations 0
diagonal:  Solving for Bz, Initial residual = 0, Final residual = 0, No Iterations 0
diagonal:  Solving for rhoUx, Initial residual = 0, Final residual = 0, No Iterations 0
diagonal:  Solving for rhoUy, Initial residual = 0, Final residual = 0, No Iterations 0
diagonal:  Solving for rhoUz, Initial residual = 0, Final residual = 0, No Iterations 0
diagonal:  Solving for rhoE, Initial residual = 0, Final residual = 0, No Iterations 0
ExecutionTime = 8.54 s  ClockTime = 9 s
max(div(Bf)) = 0  average(div(Bf)) = 0


Courant Number mean: 0.0354554 max: 0.0999031
deltaT = 2.66667e-05
Time = 0.09984

diagonal:  Solving for rho, Initial residual = 0, Final residual = 0, No Iterations 0
diagonal:  Solving for By, Initial residual = 0, Final residual = 0, No Iterations 0
diagonal:  Solving for Bz, Initial residual = 0, Final residual = 0, No Iterations 0
diagonal:  Solving for rhoUx, Initial residual = 0, Final residual = 0, No Iterations 0
diagonal:  Solving for rhoUy, Initial residual = 0, Final residual = 0, No Iterations 0
diagonal:  Solving for rhoUz, Initial residual = 0, Final residual = 0, No Iterations 0
diagonal:  Solving for rhoE, Initial residual = 0, Final residual = 0, No Iterations 0
ExecutionTime = 8.54 s  ClockTime = 9 s
max(div(Bf)) = 0  average(div(Bf)) = 0


Courant Number mean: 0.0354551 max: 0.0999031
deltaT = 2.66667e-05
Time = 0.0998667

diagonal:  Solving for rho, Initial residual = 0, Final residual = 0, No Iterations 0
diagonal:  Solving for By, Initial residual = 0, Final residual = 0, No Iterations 0
diagonal:  Solving for Bz, Initial residual = 0, Final residual = 0, No Iterations 0
diagonal:  Solving for rhoUx, Initial residual = 0, Final residual = 0, No Iterations 0
diagonal:  Solving for rhoUy, Initial residual = 0, Final residual = 0, No Iterations 0
diagonal:  Solving for rhoUz, Initial residual = 0, Final residual = 0, No Iterations 0
diagonal:  Solving for rhoE, Initial residual = 0, Final residual = 0, No Iterations 0
ExecutionTime = 8.54 s  ClockTime = 9 s
max(div(Bf)) = 0  average(div(Bf)) = 0


Courant Number mean: 0.0354548 max: 0.0999031
deltaT = 2.66667e-05
Time = 0.0998933

diagonal:  Solving for rho, Initial residual = 0, Final residual = 0, No Iterations 0
diagonal:  Solving for By, Initial residual = 0, Final residual = 0, No Iterations 0
diagonal:  Solving for Bz, Initial residual = 0, Final residual = 0, No Iterations 0
diagonal:  Solving for rhoUx, Initial residual = 0, Final residual = 0, No Iterations 0
diagonal:  Solving for rhoUy, Initial residual = 0, Final residual = 0, No Iterations 0
diagonal:  Solving for rhoUz, Initial residual = 0, Final residual = 0, No Iterations 0
diagonal:  Solving for rhoE, Initial residual = 0, Final residual = 0, No Iterations 0
ExecutionTime = 8.54 s  ClockTime = 9 s
max(div(Bf)) = 0  average(div(Bf)) = 0


Courant Number mean: 0.0354546 max: 0.0999031
deltaT = 2.66667e-05
Time = 0.09992

diagonal:  Solving for rho, Initial residual = 0, Final residual = 0, No Iterations 0
diagonal:  Solving for By, Initial residual = 0, Final residual = 0, No Iterations 0
diagonal:  Solving for Bz, Initial residual = 0, Final residual = 0, No Iterations 0
diagonal:  Solving for rhoUx, Initial residual = 0, Final residual = 0, No Iterations 0
diagonal:  Solving for rhoUy, Initial residual = 0, Final residual = 0, No Iterations 0
diagonal:  Solving for rhoUz, Initial residual = 0, Final residual = 0, No Iterations 0
diagonal:  Solving for rhoE, Initial residual = 0, Final residual = 0, No Iterations 0
ExecutionTime = 8.55 s  ClockTime = 9 s
max(div(Bf)) = 0  average(div(Bf)) = 0


Courant Number mean: 0.0354543 max: 0.0999031
deltaT = 2.66667e-05
Time = 0.0999467

diagonal:  Solving for rho, Initial residual = 0, Final residual = 0, No Iterations 0
diagonal:  Solving for By, Initial residual = 0, Final residual = 0, No Iterations 0
diagonal:  Solving for Bz, Initial residual = 0, Final residual = 0, No Iterations 0
diagonal:  Solving for rhoUx, Initial residual = 0, Final residual = 0, No Iterations 0
diagonal:  Solving for rhoUy, Initial residual = 0, Final residual = 0, No Iterations 0
diagonal:  Solving for rhoUz, Initial residual = 0, Final residual = 0, No Iterations 0
diagonal:  Solving for rhoE, Initial residual = 0, Final residual = 0, No Iterations 0
ExecutionTime = 8.55 s  ClockTime = 9 s
max(div(Bf)) = 0  average(div(Bf)) = 0


Courant Number mean: 0.035454 max: 0.0999031
deltaT = 2.66667e-05
Time = 0.0999733

diagonal:  Solving for rho, Initial residual = 0, Final residual = 0, No Iterations 0
diagonal:  Solving for By, Initial residual = 0, Final residual = 0, No Iterations 0
diagonal:  Solving for Bz, Initial residual = 0, Final residual = 0, No Iterations 0
diagonal:  Solving for rhoUx, Initial residual = 0, Final residual = 0, No Iterations 0
diagonal:  Solving for rhoUy, Initial residual = 0, Final residual = 0, No Iterations 0
diagonal:  Solving for rhoUz, Initial residual = 0, Final residual = 0, No Iterations 0
diagonal:  Solving for rhoE, Initial residual = 0, Final residual = 0, No Iterations 0
ExecutionTime = 8.55 s  ClockTime = 9 s
max(div(Bf)) = 0  average(div(Bf)) = 0


Courant Number mean: 0.0354536 max: 0.0999031
deltaT = 2.66667e-05
Time = 0.1

diagonal:  Solving for rho, Initial residual = 0, Final residual = 0, No Iterations 0
diagonal:  Solving for By, Initial residual = 0, Final residual = 0, No Iterations 0
diagonal:  Solving for Bz, Initial residual = 0, Final residual = 0, No Iterations 0
diagonal:  Solving for rhoUx, Initial residual = 0, Final residual = 0, No Iterations 0
diagonal:  Solving for rhoUy, Initial residual = 0, Final residual = 0, No Iterations 0
diagonal:  Solving for rhoUz, Initial residual = 0, Final residual = 0, No Iterations 0
diagonal:  Solving for rhoE, Initial residual = 0, Final residual = 0, No Iterations 0
ExecutionTime = 8.56 s  ClockTime = 9 s
max(div(Bf)) = 0  average(div(Bf)) = 0


End

